<routes>
    <flow id="toTown" begin="0" end="3600" probability="0.25" from="310772654#0" to="30534383#2"/>
    <flow id="fromTown" begin="0" end="3600" probability="0.25" from="205013618#0-AddedOffRampEdge" to="176908062#1"/>
</routes>
