<?xml version="1.0" encoding="UTF-8"?>

<!-- generated on Wed Sep  9 11:21:37 2015 by SUMO polyconvert Version dev-SVN-r18813I
<?xml version="1.0" encoding="UTF-8"?>

<configuration xmlns:xsi="http://www.w3.org/2001/XMLSchema-instance" xsi:noNamespaceSchemaLocation="http://sumo.dlr.de/xsd/polyconvertConfiguration.xsd">

    <input>
        <net-file value="/scr2/sip-svn-trunk/papers/DLR/ITSC_2015/sumo_tutorial/osm/2015-09-09-11-21-25/osm.net.xml"/>
        <osm-files value="osm_bbox.osm.xml"/>
        <osm.keep-full-type value="true"/>
        <type-file value="/scr1/sumoI/sumo/data/typemap/osmPolyconvert.typ.xml"/>
    </input>

    <output>
        <output-file value="/scr2/sip-svn-trunk/papers/DLR/ITSC_2015/sumo_tutorial/osm/2015-09-09-11-21-25/osm.poly.xml"/>
    </output>

    <processing>
        <poi-layer-offset value="5"/>
    </processing>

    <report>
        <verbose value="true"/>
    </report>

</configuration>
-->

<additional xmlns:xsi="http://www.w3.org/2001/XMLSchema-instance" xsi:noNamespaceSchemaLocation="http://sumo.dlr.de/xsd/additional_file.xsd">
    <location netOffset="-452366.43,-3109370.15" convBoundary="-74248.75,-8678.21,191207.34,96357.91" origBoundary="-16.245001,28.030936,-13.526426,28.971550" projParameter="+proj=utm +zone=28 +ellps=WGS84 +datum=WGS84 +units=m +no_defs"/>

    <poly id="100190262" type="man_made.pier" color="255,230,230" fill="0" layer="-1.00" shape="5606.25,2089.02 5625.84,2090.57 5629.10,2062.93 5813.26,2086.49"/>
    <poly id="100190263" type="man_made.pier" color="255,230,230" fill="0" layer="-1.00" shape="5645.05,1970.05 5657.62,1978.51 5742.69,2031.22"/>
    <poly id="100190266" type="man_made.pier" color="255,230,230" fill="0" layer="-1.00" shape="5858.10,1590.98 5885.59,1608.57"/>
    <poly id="100190267" type="man_made.pier" color="255,230,230" fill="0" layer="-1.00" shape="5632.14,2188.72 5641.98,2134.26"/>
    <poly id="100190268" type="man_made.pier" color="255,230,230" fill="0" layer="-1.00" shape="5788.89,1700.70 5857.39,1745.60"/>
    <poly id="100190269" type="man_made.pier" color="255,230,230" fill="0" layer="-1.00" shape="5685.97,1863.35 5698.61,1871.49 5786.77,1927.22"/>
    <poly id="100190271" type="man_made.pier" color="255,230,230" fill="0" layer="-1.00" shape="5893.07,1962.83 5884.15,2018.20"/>
    <poly id="100190274" type="man_made.pier" color="255,230,230" fill="0" layer="-1.00" shape="5845.88,1610.24 5879.17,1631.68"/>
    <poly id="100190275" type="man_made.pier" color="255,230,230" fill="0" layer="-1.00" shape="5752.09,1758.16 5783.31,1776.84"/>
    <poly id="100190276" type="man_made.pier" color="255,230,230" fill="0" layer="-1.00" shape="5734.15,1786.74 5826.80,1842.27"/>
    <poly id="100190281" type="man_made.pier" color="255,230,230" fill="0" layer="-1.00" shape="5770.77,1729.39 5851.05,1782.03"/>
    <poly id="100190282" type="man_made.pier" color="255,230,230" fill="0" layer="-1.00" shape="5666.36,1921.00 5791.33,1999.09"/>
    <poly id="100190283" type="man_made.pier" color="255,230,230" fill="0" layer="-1.00" shape="5713.76,1818.60 5799.79,1870.31"/>
    <poly id="100190288" type="man_made.pier" color="255,230,230" fill="0" layer="-1.00" shape="5670.46,2194.04 5681.17,2130.49"/>
    <poly id="100190289" type="man_made.pier" color="255,230,230" fill="0" layer="-1.00" shape="5814.63,2218.93 5830.59,2128.43"/>
    <poly id="100190291" type="man_made.pier" color="255,230,230" fill="0" layer="-1.00" shape="5882.15,2229.57 5898.26,2144.25"/>
    <poly id="100190295" type="man_made.pier" color="255,230,230" fill="0" layer="-1.00" shape="5918.53,2029.80 5909.57,2028.72"/>
    <poly id="100190296" type="man_made.pier" color="255,230,230" fill="0" layer="-1.00" shape="5832.02,1632.11 5875.03,1659.49"/>
    <poly id="100190297" type="man_made.pier" color="255,230,230" fill="0" layer="-1.00" shape="5716.08,2202.04 5729.50,2127.60"/>
    <poly id="119037770" type="amenity.hospital" color="237,199,199" fill="1" layer="-1.00" shape="6005.21,4384.89 6011.20,4353.10 6062.42,4362.64 6056.43,4394.43 6005.21,4384.89"/>
    <poly id="119037885" type="building.yes" color="255,230,230" fill="1" layer="-1.00" shape="5998.15,4418.27 6004.12,4386.95 6055.04,4396.55 6049.06,4427.87 5998.15,4418.27"/>
    <poly id="119037886" type="shop.supermarket" color="237,199,255" fill="1" layer="-1.00" shape="5992.94,4452.77 6000.03,4418.91 6045.84,4427.26 6038.05,4461.75 5992.94,4452.77"/>
    <poly id="119039018" type="amenity.school" color="237,199,199" fill="1" layer="-1.00" shape="6043.80,4462.85 6157.59,4485.80 6175.63,4397.29 6177.50,4388.14 6159.43,4384.49 6063.70,4365.18 6043.80,4462.85"/>
    <poly id="119108988" type="landuse.recreation_ground" color="194,194,130" fill="1" layer="-3.00" shape="5443.14,3670.62 5404.43,3667.27 5403.76,3702.26 5442.75,3696.56 5443.14,3670.62"/>
    <poly id="119108988#1" type="leisure.pitch" color="207,245,201" fill="1" layer="-2.00" shape="5443.14,3670.62 5404.43,3667.27 5403.76,3702.26 5442.75,3696.56 5443.14,3670.62"/>
    <poly id="119108988#2" type="sport.skateboard" color="79,230,125" fill="1" layer="-2.00" shape="5443.14,3670.62 5404.43,3667.27 5403.76,3702.26 5442.75,3696.56 5443.14,3670.62"/>
    <poly id="119110526" type="amenity.marketplace" color="237,199,199" fill="1" layer="-1.00" shape="5470.32,4248.58 5513.09,4236.74 5525.20,4280.48 5481.50,4291.64 5470.32,4248.58"/>
    <poly id="126808548" type="building.yes" color="255,230,230" fill="1" layer="-1.00" shape="5936.11,4381.98 5917.32,4387.99 5916.69,4389.65 5914.73,4389.90 5913.20,4388.81 5913.03,4387.47 5913.58,4386.21 5907.18,4366.01 5904.45,4365.20 5903.09,4362.89 5903.21,4360.02 5904.92,4357.97 5907.53,4357.08 5910.08,4357.48 5911.91,4359.78 5932.28,4353.42 5939.34,4375.66 5941.45,4376.58 5942.40,4378.12 5942.61,4380.01 5941.85,4382.35 5939.90,4383.28 5938.13,4383.46 5936.86,4383.04 5936.11,4381.98"/>
    <poly id="126808548#1" type="historic.castle" color="128,255,128" fill="1" layer="-1.00" shape="5936.11,4381.98 5917.32,4387.99 5916.69,4389.65 5914.73,4389.90 5913.20,4388.81 5913.03,4387.47 5913.58,4386.21 5907.18,4366.01 5904.45,4365.20 5903.09,4362.89 5903.21,4360.02 5904.92,4357.97 5907.53,4357.08 5910.08,4357.48 5911.91,4359.78 5932.28,4353.42 5939.34,4375.66 5941.45,4376.58 5942.40,4378.12 5942.61,4380.01 5941.85,4382.35 5939.90,4383.28 5938.13,4383.46 5936.86,4383.04 5936.11,4381.98"/>
    <poly id="131985226" type="building.yes" color="255,230,230" fill="1" layer="-1.00" shape="6014.29,1100.67 5982.12,1144.13 6002.50,1160.37 6036.80,1116.14 6014.29,1100.67"/>
    <poly id="131996343" type="building.yes" color="255,230,230" fill="1" layer="-1.00" shape="6035.78,1240.78 6059.97,1214.13 6038.44,1189.11 5981.76,1143.87 5957.57,1170.52 6035.78,1240.78"/>
    <poly id="131996344" type="leisure.park" color="207,245,201" fill="1" layer="-2.00" shape="6066.70,1152.83 6036.80,1116.14 6002.50,1160.37 6013.11,1169.88 6038.44,1189.11 6058.47,1163.85 6066.70,1152.83"/>
    <poly id="131998637" type="leisure.pitch" color="207,245,201" fill="1" layer="-2.00" shape="6047.04,1138.28 6038.80,1149.30 6058.47,1163.85 6066.70,1152.83 6047.04,1138.28"/>
    <poly id="131998637#1" type="sport.basketball" color="79,230,125" fill="1" layer="-2.00" shape="6047.04,1138.28 6038.80,1149.30 6058.47,1163.85 6066.70,1152.83 6047.04,1138.28"/>
    <poly id="131998640" type="leisure.pitch" color="207,245,201" fill="1" layer="-2.00" shape="6030.30,1178.63 6040.68,1186.98 6047.79,1178.23 6037.41,1169.87 6030.30,1178.63"/>
    <poly id="131998640#1" type="sport.basketball" color="79,230,125" fill="1" layer="-2.00" shape="6030.30,1178.63 6040.68,1186.98 6047.79,1178.23 6037.41,1169.87 6030.30,1178.63"/>
    <poly id="132000826" type="leisure.pitch" color="207,245,201" fill="1" layer="-2.00" shape="6040.18,1167.48 6050.10,1174.64 6056.25,1166.19 6046.32,1159.04 6040.18,1167.48"/>
    <poly id="132000826#1" type="sport.basketball" color="79,230,125" fill="1" layer="-2.00" shape="6040.18,1167.48 6050.10,1174.64 6056.25,1166.19 6046.32,1159.04 6040.18,1167.48"/>
    <poly id="132001414" type="leisure.playground" color="207,245,201" fill="1" layer="-2.00" shape="6013.11,1169.88 6024.55,1179.86 6036.99,1165.38 6031.76,1160.62 6029.62,1164.21 6024.66,1163.88 6021.20,1160.14 6013.11,1169.88"/>
    <poly id="132005596" type="building.yes" color="255,230,230" fill="1" layer="-1.00" shape="6091.97,1188.62 6102.45,1174.95 6066.70,1152.83 6058.47,1163.85 6091.97,1188.62"/>
    <poly id="132006246" type="leisure.track" color="207,245,201" fill="1" layer="-2.00" shape="5815.85,1469.93 5837.77,1484.47 5518.98,1985.85 5546.65,1898.03 5815.85,1469.93"/>
    <poly id="141892111" type="leisure.common" color="207,245,201" fill="1" layer="-2.00" shape="4889.35,1871.43 4894.97,1863.52 4896.94,1860.02 4896.93,1856.53 4896.30,1851.51 4894.46,1848.79 4888.34,1842.75 4877.92,1833.21 4882.52,1840.33 4885.90,1846.39 4887.91,1851.54 4888.39,1857.77 4888.41,1864.15 4886.60,1870.84 4883.87,1875.70 4881.95,1880.35 4889.35,1871.43"/>
    <poly id="141892655" type="leisure.garden" color="207,245,201" fill="1" layer="-2.00" shape="4875.62,1867.62 4877.70,1863.25 4878.06,1856.03 4876.52,1849.20 4873.44,1842.58 4867.30,1833.67 4833.23,1802.11 4786.90,1757.49 4774.08,1744.44 4767.75,1734.59 4761.60,1723.42 4757.94,1713.57 4753.88,1697.83 4752.30,1682.47 4753.02,1668.98 4757.14,1649.05 4762.59,1627.40 4765.59,1613.53 4766.33,1606.12 4764.60,1601.39 4762.09,1597.79 4757.49,1594.59 4752.31,1594.13 4748.31,1594.72 4744.90,1596.39 4738.67,1602.82 4727.00,1615.98 4716.59,1627.48 4716.41,1633.41 4721.15,1647.49 4735.30,1690.81 4747.94,1728.12 4755.80,1749.04 4758.57,1755.25 4764.41,1763.73 4771.14,1771.45 4780.03,1780.52 4801.16,1800.19 4819.54,1818.03 4839.58,1834.36 4853.20,1844.93 4858.87,1849.01 4863.16,1853.70 4863.78,1857.19 4862.28,1865.55 4862.75,1867.67 4866.88,1869.63 4868.71,1868.56 4869.15,1865.37 4870.67,1863.69 4873.27,1863.08 4874.34,1864.29 4875.62,1867.62"/>
    <poly id="169015050" type="leisure.park" color="207,245,201" fill="1" layer="-2.00" shape="4923.64,2139.20 5110.65,2135.39 5108.26,2094.65 5006.12,2113.36 4924.60,2111.95 4923.64,2139.20"/>
    <poly id="169015054" type="leisure.park" color="207,245,201" fill="1" layer="-2.00" shape="5554.42,1886.97 5545.83,1879.79 5555.23,1855.65 5549.56,1852.39 5572.57,1803.05 5558.83,1793.14 5596.01,1727.49 5633.21,1748.04 5657.22,1706.90 5663.88,1710.89 5554.42,1886.97"/>
    <poly id="169015056" type="leisure.park" color="207,245,201" fill="1" layer="-2.00" shape="5622.49,1599.90 5638.45,1609.02 5725.67,1465.11 5737.68,1472.53 5754.52,1443.79 5809.89,1477.78 5815.85,1469.93 5782.44,1443.17 5779.38,1435.71 5778.69,1426.41 5777.62,1422.22 5772.47,1417.92 5749.17,1404.88 5745.35,1404.64 5741.67,1406.35 5738.92,1410.42 5732.97,1421.72 5723.53,1433.29 5622.49,1599.90"/>
    <poly id="170268766" type="building.yes" color="255,230,230" fill="1" layer="-1.00" shape="5323.83,3687.44 5325.45,3716.03 5322.91,3720.88 5302.53,3724.64 5300.38,3705.39 5284.53,3704.32 5283.53,3694.62 5293.38,3694.95 5293.70,3686.27 5311.19,3686.95 5323.83,3687.44"/>
    <poly id="170268767" type="building.yes" color="255,230,230" fill="1" layer="-1.00" shape="5306.21,3732.87 5295.86,3734.75 5298.22,3744.16 5301.15,3743.43 5302.64,3749.36 5303.72,3753.67 5304.23,3755.69 5311.41,3753.91 5309.02,3744.39 5308.01,3740.34 5306.21,3732.87"/>
    <poly id="170268768" type="building.yes" color="255,230,230" fill="1" layer="-1.00" shape="5378.00,3656.03 5354.87,3654.59 5355.35,3644.11 5352.92,3646.29 5349.68,3647.12 5345.70,3645.59 5343.75,3640.92 5345.50,3636.54 5349.87,3635.03 5353.45,3636.26 5355.57,3638.93 5356.11,3627.86 5378.95,3629.43 5393.19,3630.52 5391.78,3656.68 5378.00,3656.03"/>
    <poly id="170268769" type="building.yes" color="255,230,230" fill="1" layer="-1.00" shape="5282.48,3782.18 5285.86,3795.66 5307.48,3790.29 5304.09,3776.81 5282.48,3782.18"/>
    <poly id="170268770" type="building.yes" color="255,230,230" fill="1" layer="-1.00" shape="5330.39,3749.20 5332.74,3758.56 5313.76,3763.28 5311.41,3753.91 5330.39,3749.20"/>
    <poly id="170268771" type="building.yes" color="255,230,230" fill="1" layer="-1.00" shape="5327.57,3785.31 5338.75,3782.52 5335.37,3769.04 5324.18,3771.82 5327.57,3785.31"/>
    <poly id="170268772" type="building.yes" color="255,230,230" fill="1" layer="-1.00" shape="5281.59,3737.73 5271.59,3739.62 5275.36,3753.82 5284.84,3751.46 5281.59,3737.73"/>
    <poly id="170268773" type="building.yes" color="255,230,230" fill="1" layer="-1.00" shape="5328.01,3739.68 5330.39,3749.20 5311.41,3753.91 5309.02,3744.39 5319.37,3741.81 5328.01,3739.68"/>
    <poly id="170268774" type="building.yes" color="255,230,230" fill="1" layer="-1.00" shape="5285.05,3727.38 5271.84,3729.84 5268.85,3703.34 5282.07,3704.22 5285.05,3727.38"/>
    <poly id="170268775" type="building.yes" color="255,230,230" fill="1" layer="-1.00" shape="5268.85,3703.34 5265.67,3693.84 5283.53,3694.62 5284.53,3704.32 5282.07,3704.22 5268.85,3703.34"/>
    <poly id="170268776" type="building.yes" color="255,230,230" fill="1" layer="-1.00" shape="5275.36,3753.82 5277.81,3763.59 5287.29,3761.24 5286.47,3757.95 5284.84,3751.46 5275.36,3753.82"/>
    <poly id="170268777" type="building.yes" color="255,230,230" fill="1" layer="-1.00" shape="5302.53,3724.64 5285.05,3727.38 5282.07,3704.22 5284.53,3704.32 5300.38,3705.39 5302.53,3724.64"/>
    <poly id="170268778" type="building.yes" color="255,230,230" fill="1" layer="-1.00" shape="5307.48,3790.29 5327.57,3785.31 5324.18,3771.82 5314.07,3774.34 5308.50,3775.71 5304.09,3776.81 5307.48,3790.29"/>
    <poly id="170268779" type="building.yes" color="255,230,230" fill="1" layer="-1.00" shape="5335.37,3769.04 5332.74,3758.56 5313.76,3763.28 5311.44,3763.86 5314.07,3774.34 5324.18,3771.82 5335.37,3769.04"/>
    <poly id="170268780" type="building.yes" color="255,230,230" fill="1" layer="-1.00" shape="5323.83,3687.44 5311.19,3686.95 5311.21,3678.73 5311.27,3661.13 5318.98,3661.76 5323.07,3666.80 5323.83,3687.44"/>
    <poly id="170268781" type="building.yes" color="255,230,230" fill="0" layer="-1.00" shape="5260.88,3679.27 5265.37,3679.37 5271.86,3679.54 5279.86,3679.93 5293.82,3680.62 5293.70,3686.27 5293.38,3694.95 5283.53,3694.62"/>
    <poly id="170268782" type="building.yes" color="255,230,230" fill="1" layer="-1.00" shape="5277.81,3763.59 5282.48,3782.18 5304.09,3776.81 5308.50,3775.71 5303.84,3757.12 5287.29,3761.24 5277.81,3763.59"/>
    <poly id="170268783" type="building.yes" color="255,230,230" fill="1" layer="-1.00" shape="5305.92,3678.35 5293.96,3677.33 5293.82,3680.62 5293.70,3686.27 5311.19,3686.95 5311.21,3678.73 5305.92,3678.35"/>
    <poly id="170268784" type="building.yes" color="255,230,230" fill="1" layer="-1.00" shape="5311.27,3661.13 5288.08,3659.74 5287.54,3671.65 5305.99,3672.48 5305.92,3678.35 5311.21,3678.73 5311.27,3661.13"/>
    <poly id="170268785" type="building.yes" color="255,230,230" fill="1" layer="-1.00" shape="5322.45,3730.14 5326.40,3732.54 5328.01,3739.68 5319.37,3741.81 5318.65,3738.34 5308.01,3740.34 5306.21,3732.87 5322.45,3730.14"/>
    <poly id="170268786" type="building.yes" color="255,230,230" fill="1" layer="-1.00" shape="5295.86,3734.75 5281.59,3737.73 5284.84,3751.46 5286.47,3757.95 5303.72,3753.67 5302.64,3749.36 5299.71,3750.09 5298.22,3744.16 5295.86,3734.75"/>
    <poly id="171689297" type="leisure.pitch" color="207,245,201" fill="1" layer="-2.00" shape="3369.14,2145.39 3390.82,2097.06 3420.00,2110.01 3398.32,2158.34 3369.14,2145.39"/>
    <poly id="171689297#1" type="sport.soccer" color="79,230,125" fill="1" layer="-2.00" shape="3369.14,2145.39 3390.82,2097.06 3420.00,2110.01 3398.32,2158.34 3369.14,2145.39"/>
    <poly id="171689298" type="leisure.pitch" color="207,245,201" fill="1" layer="-2.00" shape="3362.83,2142.87 3381.31,2094.47 3348.01,2081.89 3329.53,2130.29 3362.83,2142.87"/>
    <poly id="171689298#1" type="sport.soccer" color="79,230,125" fill="1" layer="-2.00" shape="3362.83,2142.87 3381.31,2094.47 3348.01,2081.89 3329.53,2130.29 3362.83,2142.87"/>
    <poly id="171690049" type="amenity.school" color="237,199,199" fill="1" layer="-1.00" shape="3702.32,2176.93 3787.57,2079.93 3825.63,2114.12 3738.80,2211.92 3702.32,2176.93"/>
    <poly id="171695295" type="building.yes" color="255,230,230" fill="1" layer="-1.00" shape="5429.89,4063.98 5416.29,4017.97 5439.55,4011.51 5453.33,4058.15 5429.89,4063.98"/>
    <poly id="171746950" type="leisure.park" color="207,245,201" fill="1" layer="-2.00" shape="6178.99,4520.90 6263.23,4537.08 6259.30,4556.18 6175.44,4539.87 6178.99,4520.90"/>
    <poly id="171751120" type="leisure.park" color="207,245,201" fill="1" layer="-2.00" shape="6022.28,4767.60 6049.38,4772.89 6050.71,4757.67 6045.47,4756.39 6022.28,4767.60"/>
    <poly id="171751416" type="leisure.park" color="207,245,201" fill="1" layer="-2.00" shape="5940.76,4964.06 5941.44,4940.39 5928.11,4938.69 5920.87,4964.00 5940.76,4964.06"/>
    <poly id="171751534" type="leisure.park" color="207,245,201" fill="1" layer="-2.00" shape="5578.59,4702.01 5616.88,4675.16 5582.04,4674.09 5578.59,4702.01"/>
    <poly id="171751790" type="amenity.school" color="237,199,199" fill="1" layer="-1.00" shape="5432.20,4918.12 5505.50,4932.49 5514.85,4879.91 5441.71,4864.90 5432.20,4918.12"/>
    <poly id="171873872" type="building.shops" color="255,230,230" fill="1" layer="-1.00" shape="5643.17,3525.40 5796.28,3549.24 5791.92,3573.81 5672.23,3700.59 5661.93,3690.52 5589.78,3623.07 5606.84,3604.39 5628.26,3602.93 5620.83,3588.55 5635.23,3588.05 5645.94,3565.75 5639.43,3561.76 5631.18,3561.87 5628.10,3557.08 5628.51,3552.71 5633.51,3550.59 5636.68,3551.45 5639.93,3552.32 5643.17,3525.40"/>
    <poly id="171873872#1" type="shop.mall" color="237,199,255" fill="1" layer="-1.00" shape="5643.17,3525.40 5796.28,3549.24 5791.92,3573.81 5672.23,3700.59 5661.93,3690.52 5589.78,3623.07 5606.84,3604.39 5628.26,3602.93 5620.83,3588.55 5635.23,3588.05 5645.94,3565.75 5639.43,3561.76 5631.18,3561.87 5628.10,3557.08 5628.51,3552.71 5633.51,3550.59 5636.68,3551.45 5639.93,3552.32 5643.17,3525.40"/>
    <poly id="175793374" type="leisure.sports_centre" color="207,245,201" fill="1" layer="-2.00" shape="5516.58,1362.06 5498.79,1355.01 5472.59,1361.14 5465.23,1385.39 5550.59,1414.73 5559.80,1385.52 5552.90,1383.32 5554.46,1377.28 5516.58,1362.06"/>
    <poly id="175793374#1" type="sport.table_tennis" color="79,230,125" fill="1" layer="-2.00" shape="5516.58,1362.06 5498.79,1355.01 5472.59,1361.14 5465.23,1385.39 5550.59,1414.73 5559.80,1385.52 5552.90,1383.32 5554.46,1377.28 5516.58,1362.06"/>
    <poly id="175999078" type="leisure.park" color="207,245,201" fill="1" layer="-2.00" shape="4701.07,1465.92 4707.95,1491.94 4707.69,1494.84 4705.07,1496.67 4700.05,1495.12 4689.28,1483.52 4676.77,1466.38 4664.65,1446.92 4650.61,1426.53 4639.56,1410.79 4634.13,1402.85 4618.05,1381.05 4601.64,1359.89 4586.49,1339.08 4571.66,1320.00 4558.43,1303.55 4545.99,1285.77 4537.53,1261.06 4535.34,1238.00 4533.60,1211.39 4534.90,1189.78 4540.80,1162.62 4543.07,1134.56 4542.79,1113.49 4540.86,1087.30 4535.69,1061.22 4521.95,1033.12 4502.29,1001.86 4494.02,977.25 4491.57,953.16 4489.63,926.95 4490.12,916.73 4493.78,909.64 4500.88,903.59 4515.93,895.82 4527.71,895.63 4541.44,901.87 4569.69,918.28 4588.71,934.46 4602.50,957.73 4609.71,987.32 4609.63,1018.12 4608.32,1040.00 4606.89,1062.42 4606.67,1091.61 4608.94,1120.33 4615.37,1147.04 4619.58,1167.31 4629.45,1200.30 4636.39,1225.68 4645.01,1259.62 4652.75,1287.37 4658.55,1307.64 4667.09,1337.74 4674.82,1364.71 4683.36,1394.81 4692.70,1428.84 4701.07,1465.92"/>
    <poly id="175999103" type="leisure.park" color="207,245,201" fill="1" layer="-2.00" shape="4860.09,1162.51 4930.59,1060.05 4976.67,1112.20 4872.51,1176.09 4860.09,1162.51"/>
    <poly id="176907475" type="amenity.parking" color="184,184,179" fill="1" layer="-1.00" shape="5632.31,1746.32 5656.14,1705.76 5591.73,1669.56 5573.53,1701.91 5604.55,1717.99 5598.91,1728.04 5632.31,1746.32"/>
    <poly id="176908063" type="amenity.parking" color="184,184,179" fill="1" layer="-1.00" shape="5905.95,1471.73 5954.29,1410.56 5960.11,1417.87 5953.59,1512.75 5945.10,1517.85 5931.97,1508.22 5912.99,1503.99 5923.38,1486.34 5905.95,1471.73"/>
    <poly id="176910643" type="leisure.park" color="207,245,201" fill="1" layer="-2.00" shape="5007.52,1358.02 5037.65,1309.17 5045.04,1312.29 5035.74,1346.71 5017.03,1363.76 5007.52,1358.02"/>
    <poly id="176910674" type="amenity.parking" color="184,184,179" fill="1" layer="-1.00" shape="5417.68,1280.05 5437.38,1246.48 5441.79,1248.78 5418.76,1289.74 5417.68,1280.05"/>
    <poly id="178662845" type="aeroway.helipad" color="grey" fill="1" layer="-2.00" shape="4058.45,1453.14 4069.48,1429.34 4095.28,1440.95 4084.36,1466.50 4058.45,1453.14"/>
    <poly id="179731493" type="amenity.swimming_pool" color="237,199,199" fill="1" layer="-1.00" shape="5487.78,1349.06 5493.84,1347.47 5491.17,1336.73 5484.59,1338.33 5487.78,1349.06"/>
    <poly id="179731493#1" type="sport.swimming" color="79,230,125" fill="1" layer="-2.00" shape="5487.78,1349.06 5493.84,1347.47 5491.17,1336.73 5484.59,1338.33 5487.78,1349.06"/>
    <poly id="179731494" type="leisure.pitch" color="207,245,201" fill="1" layer="-2.00" shape="5581.61,1522.34 5600.87,1490.88 5617.81,1501.15 5598.54,1532.61 5581.61,1522.34"/>
    <poly id="179731494#1" type="sport.soccer" color="79,230,125" fill="1" layer="-2.00" shape="5581.61,1522.34 5600.87,1490.88 5617.81,1501.15 5598.54,1532.61 5581.61,1522.34"/>
    <poly id="179731495" type="leisure.pitch" color="207,245,201" fill="1" layer="-2.00" shape="5629.59,1495.54 5644.03,1472.37 5656.62,1480.14 5642.18,1503.31 5629.59,1495.54"/>
    <poly id="179731495#1" type="sport.basketball" color="79,230,125" fill="1" layer="-2.00" shape="5629.59,1495.54 5644.03,1472.37 5656.62,1480.14 5642.18,1503.31 5629.59,1495.54"/>
    <poly id="179731498" type="leisure.pitch" color="207,245,201" fill="1" layer="-2.00" shape="5602.94,1486.70 5623.30,1453.19 5640.29,1463.40 5619.93,1496.92 5602.94,1486.70"/>
    <poly id="179731498#1" type="sport.soccer" color="79,230,125" fill="1" layer="-2.00" shape="5602.94,1486.70 5623.30,1453.19 5640.29,1463.40 5619.93,1496.92 5602.94,1486.70"/>
    <poly id="179731499" type="leisure.pitch" color="207,245,201" fill="1" layer="-2.00" shape="5607.50,1530.82 5621.38,1508.70 5633.32,1516.12 5619.45,1538.24 5607.50,1530.82"/>
    <poly id="179731499#1" type="sport.basketball" color="79,230,125" fill="1" layer="-2.00" shape="5607.50,1530.82 5621.38,1508.70 5633.32,1516.12 5619.45,1538.24 5607.50,1530.82"/>
    <poly id="179731506" type="leisure.pitch" color="207,245,201" fill="1" layer="-2.00" shape="5665.00,1602.30 5676.91,1582.64 5687.18,1588.80 5675.26,1608.46 5665.00,1602.30"/>
    <poly id="179731506#1" type="sport.tennis" color="79,230,125" fill="1" layer="-2.00" shape="5665.00,1602.30 5676.91,1582.64 5687.18,1588.80 5675.26,1608.46 5665.00,1602.30"/>
    <poly id="179731509" type="amenity.swimming_pool" color="237,199,199" fill="1" layer="-1.00" shape="5512.24,1344.90 5524.81,1323.37 5535.62,1329.63 5523.06,1351.15 5512.24,1344.90"/>
    <poly id="179731509#1" type="sport.swimming" color="79,230,125" fill="1" layer="-2.00" shape="5512.24,1344.90 5524.81,1323.37 5535.62,1329.63 5523.06,1351.15 5512.24,1344.90"/>
    <poly id="179731514" type="amenity.swimming_pool" color="237,199,199" fill="1" layer="-1.00" shape="5722.69,1544.92 5735.90,1523.76 5748.38,1531.46 5735.18,1552.63 5722.69,1544.92"/>
    <poly id="179731514#1" type="sport.swimming" color="79,230,125" fill="1" layer="-2.00" shape="5722.69,1544.92 5735.90,1523.76 5748.38,1531.46 5735.18,1552.63 5722.69,1544.92"/>
    <poly id="179731517" type="amenity.swimming_pool" color="237,199,199" fill="1" layer="-1.00" shape="5710.74,1568.02 5718.35,1553.82 5729.83,1559.92 5722.21,1574.10 5710.74,1568.02"/>
    <poly id="179731517#1" type="sport.swimming" color="79,230,125" fill="1" layer="-2.00" shape="5710.74,1568.02 5718.35,1553.82 5729.83,1559.92 5722.21,1574.10 5710.74,1568.02"/>
    <poly id="179731518" type="amenity.swimming_pool" color="237,199,199" fill="1" layer="-1.00" shape="5685.02,1552.02 5710.46,1509.57 5727.97,1519.96 5702.53,1562.40 5685.02,1552.02"/>
    <poly id="179731518#1" type="sport.swimming" color="79,230,125" fill="1" layer="-2.00" shape="5685.02,1552.02 5710.46,1509.57 5727.97,1519.96 5702.53,1562.40 5685.02,1552.02"/>
    <poly id="179731519" type="amenity.swimming_pool" color="237,199,199" fill="1" layer="-1.00" shape="5752.24,1534.45 5755.73,1529.52 5758.92,1531.76 5755.42,1536.69 5752.24,1534.45"/>
    <poly id="179731519#1" type="sport.swimming" color="79,230,125" fill="1" layer="-2.00" shape="5752.24,1534.45 5755.73,1529.52 5758.92,1531.76 5755.42,1536.69 5752.24,1534.45"/>
    <poly id="179731521" type="amenity.swimming_pool" color="237,199,199" fill="1" layer="-1.00" shape="5717.33,1500.15 5727.59,1482.70 5770.49,1507.66 5760.23,1525.11 5717.33,1500.15"/>
    <poly id="179731521#1" type="sport.swimming" color="79,230,125" fill="1" layer="-2.00" shape="5717.33,1500.15 5727.59,1482.70 5770.49,1507.66 5760.23,1525.11 5717.33,1500.15"/>
    <poly id="179731522" type="leisure.pitch" color="207,245,201" fill="1" layer="-2.00" shape="5677.06,1609.51 5688.30,1589.53 5697.22,1594.50 5686.00,1614.48 5677.06,1609.51"/>
    <poly id="179731522#1" type="sport.tennis" color="79,230,125" fill="1" layer="-2.00" shape="5677.06,1609.51 5688.30,1589.53 5697.22,1594.50 5686.00,1614.48 5677.06,1609.51"/>
    <poly id="179731523" type="natural.water" color="181,209,209" fill="1" layer="-4.00" shape="5535.49,1206.33 5538.89,1198.45 5544.14,1192.93 5546.76,1189.52 5548.86,1185.84 5553.58,1180.58 5558.03,1170.87 5577.80,1176.30 5575.20,1186.79 5570.99,1187.86 5567.66,1190.12 5565.09,1194.88 5565.51,1200.45 5563.41,1205.96 5556.06,1210.98 5553.44,1215.17 5551.34,1218.85 5535.49,1206.33"/>
    <poly id="179731530" type="amenity.swimming_pool" color="237,199,199" fill="1" layer="-1.00" shape="5485.15,1349.59 5463.31,1355.17 5451.55,1305.94 5473.39,1300.89 5485.15,1349.59"/>
    <poly id="179731530#1" type="sport.swimming" color="79,230,125" fill="1" layer="-2.00" shape="5485.15,1349.59 5463.31,1355.17 5451.55,1305.94 5473.39,1300.89 5485.15,1349.59"/>
    <poly id="179731567" type="leisure.pitch" color="207,245,201" fill="1" layer="-2.00" shape="5487.73,1385.45 5495.22,1366.07 5487.57,1363.14 5480.08,1382.52 5487.73,1385.45"/>
    <poly id="179731567#1" type="sport.tennis" color="79,230,125" fill="1" layer="-2.00" shape="5487.73,1385.45 5495.22,1366.07 5487.57,1363.14 5480.08,1382.52 5487.73,1385.45"/>
    <poly id="179731568" type="leisure.pitch" color="207,245,201" fill="1" layer="-2.00" shape="5502.87,1388.44 5509.80,1367.55 5501.14,1364.71 5494.22,1385.61 5502.87,1388.44"/>
    <poly id="179731568#1" type="sport.tennis" color="79,230,125" fill="1" layer="-2.00" shape="5502.87,1388.44 5509.80,1367.55 5501.14,1364.71 5494.22,1385.61 5502.87,1388.44"/>
    <poly id="179731569" type="leisure.pitch" color="207,245,201" fill="1" layer="-2.00" shape="5524.01,1398.10 5531.53,1377.38 5522.05,1373.96 5514.52,1394.70 5524.01,1398.10"/>
    <poly id="179731569#1" type="sport.tennis" color="79,230,125" fill="1" layer="-2.00" shape="5524.01,1398.10 5531.53,1377.38 5522.05,1373.96 5514.52,1394.70 5524.01,1398.10"/>
    <poly id="179731570" type="leisure.pitch" color="207,245,201" fill="1" layer="-2.00" shape="5529.36,1399.60 5536.22,1379.25 5546.08,1382.54 5539.23,1402.90 5529.36,1399.60"/>
    <poly id="179731570#1" type="sport.tennis" color="79,230,125" fill="1" layer="-2.00" shape="5529.36,1399.60 5536.22,1379.25 5546.08,1382.54 5539.23,1402.90 5529.36,1399.60"/>
    <poly id="179731761" type="leisure.playground" color="207,245,201" fill="1" layer="-2.00" shape="5545.26,1254.13 5551.93,1241.34 5572.31,1251.87 5565.63,1264.66 5545.26,1254.13"/>
    <poly id="180757177" type="man_made.pier" color="255,230,230" fill="0" layer="-1.00" shape="5880.44,1709.77 5921.55,1712.77"/>
    <poly id="180757178" type="man_made.pier" color="255,230,230" fill="0" layer="-1.00" shape="5927.06,1630.99 5891.75,1629.54"/>
    <poly id="180757179" type="man_made.pier" color="255,230,230" fill="0" layer="-1.00" shape="5698.61,1871.49 5681.16,1900.47"/>
    <poly id="180757180" type="man_made.pier" color="255,230,230" fill="0" layer="-1.00" shape="5898.51,1601.74 5928.49,1604.33"/>
    <poly id="180757181" type="man_made.pier" color="255,230,230" fill="0" layer="-1.00" shape="5910.91,1986.39 5909.57,2028.72 5908.70,2055.23"/>
    <poly id="180757182" type="man_made.pier" color="255,230,230" fill="0" layer="-1.00" shape="5858.17,1970.32 5870.70,1937.79"/>
    <poly id="180757184" type="man_made.pier" color="255,230,230" fill="0" layer="-1.00" shape="5772.86,2130.96 5759.43,2207.53"/>
    <poly id="180757185" type="man_made.pier" color="255,230,230" fill="0" layer="-1.00" shape="5865.17,1710.35 5806.02,1673.10"/>
    <poly id="180757186" type="man_made.pier" color="255,230,230" fill="0" layer="-1.00" shape="6067.45,1401.99 5988.68,1396.73"/>
    <poly id="180757187" type="man_made.pier" color="255,230,230" fill="0" layer="-1.00" shape="5870.35,1686.22 5819.07,1652.53"/>
    <poly id="180757189" type="man_made.pier" color="255,230,230" fill="0" layer="-1.00" shape="5657.62,1978.51 5636.64,2008.82"/>
    <poly id="180757190" type="man_made.pier" color="255,230,230" fill="0" layer="-1.00" shape="5923.24,1685.80 5882.46,1683.29"/>
    <poly id="180757191" type="man_made.pier" color="255,230,230" fill="0" layer="-1.00" shape="5640.06,2113.10 5604.75,2110.07"/>
    <poly id="180757192" type="man_made.pier" color="255,230,230" fill="0" layer="-1.00" shape="5888.69,1656.29 5925.28,1658.01"/>
    <poly id="191212135" type="man_made.pier" color="255,230,230" fill="1" layer="-1.00" shape="6015.25,3551.75 6165.62,3400.65 6235.78,3327.75 6243.66,3335.28 6024.41,3561.50 6015.25,3551.75"/>