<?xml version="1.0"?>
<!-- generated on 2015-09-09 13:33:13.198867 by $Id: route2trips.py 18237 2015-04-20 10:43:52Z namdre $ -->
<trips>
    <vType vClass="passenger" id="passenger"/>
    <trip id="veh0" depart="0.00" departLane="best" from="30567637#0" to="-180135573#2" type="passenger"/>
    <trip id="veh1" depart="1.05" departLane="best" from="176324883#2" to="175999147#0" type="passenger"/>
    <trip id="veh2" depart="2.10" departLane="best" from="324752778#4" to="324751739#2" type="passenger"/>
    <trip id="veh3" depart="3.16" departLane="best" from="37383977#1" to="-304384067#0" type="passenger"/>
    <trip id="veh4" depart="4.21" departLane="best" from="194828057#3" to="-180762426" type="passenger"/>
    <trip id="veh5" depart="5.26" departLane="best" from="169051254#1" to="30416921#4" type="passenger"/>
    <trip id="veh6" depart="6.31" departLane="best" from="-180878328#1" to="172020977#0" type="passenger"/>
    <trip id="veh7" depart="7.37" departLane="best" from="30598938#1" to="304384071#3" type="passenger"/>
    <trip id="veh8" depart="8.42" departLane="best" from="169051258#0" to="30564973#3" type="passenger"/>
    <trip id="veh9" depart="9.47" departLane="best" from="37174473#2" to="-169017784#1" type="passenger"/>
    <trip id="veh10" depart="10.52" departLane="best" from="351721396" to="324752522" type="passenger"/>
    <trip id="veh11" depart="11.58" departLane="best" from="180135576" to="-56026350#3" type="passenger"/>
    <trip id="veh12" depart="12.63" departLane="best" from="38923009#0" to="182857087#0" type="passenger"/>
    <trip id="veh13" depart="13.68" departLane="best" from="-29062003#0" to="-30567637#3" type="passenger"/>
    <trip id="veh14" depart="14.73" departLane="best" from="37180739#0" to="30598875#0" type="passenger"/>
    <trip id="veh15" depart="15.79" departLane="best" from="37164509#1-AddedOffRampEdge" to="325001081" type="passenger"/>
    <trip id="veh17" depart="17.89" departLane="best" from="182007938#6" to="304384090" type="passenger"/>
    <trip id="veh18" depart="18.94" departLane="best" from="37180459#3" to="30616910#0" type="passenger"/>
    <trip id="veh19" depart="20.00" departLane="best" from="37180987#6" to="30533904#2" type="passenger"/>
    <trip id="veh20" depart="21.05" departLane="best" from="324317006" to="-194799780#2" type="passenger"/>
    <trip id="veh21" depart="22.10" departLane="best" from="171677012#3" to="180328745#0" type="passenger"/>
    <trip id="veh22" depart="23.15" departLane="best" from="-270375655" to="176908064#1" type="passenger"/>
    <trip id="veh23" depart="24.21" departLane="best" from="-30567637#0" to="177308121" type="passenger"/>
    <trip id="veh24" depart="25.26" departLane="best" from="30565122#4" to="200916233#2" type="passenger"/>
    <trip id="veh25" depart="26.31" departLane="best" from="181961191#8" to="175793381#1" type="passenger"/>
    <trip id="veh26" depart="27.36" departLane="best" from="175999108#0" to="38060307" type="passenger"/>
    <trip id="veh27" depart="28.42" departLane="best" from="30598875#2" to="30598958#2" type="passenger"/>
    <trip id="veh28" depart="29.47" departLane="best" from="-37376904" to="325001081" type="passenger"/>
    <trip id="veh29" depart="30.52" departLane="best" from="-37343420#2" to="207176164" type="passenger"/>
    <trip id="veh31" depart="32.63" departLane="best" from="30417206#3" to="324751756#1" type="passenger"/>
    <trip id="veh32" depart="33.68" departLane="best" from="37180732#1" to="335278790" type="passenger"/>
    <trip id="veh33" depart="34.73" departLane="best" from="171677012#7" to="-180878327" type="passenger"/>
    <trip id="veh34" depart="35.78" departLane="best" from="159554254#1" to="38060330#0" type="passenger"/>
    <trip id="veh35" depart="36.84" departLane="best" from="37350432#2" to="182007932#0" type="passenger"/>
    <trip id="veh36" depart="37.89" departLane="best" from="30598983#0" to="250563617#2" type="passenger"/>
    <trip id="veh37" depart="38.94" departLane="best" from="37720471" to="290618573#3" type="passenger"/>
    <trip id="veh38" depart="39.99" departLane="best" from="175999097#0" to="176910668" type="passenger"/>
    <trip id="veh39" depart="41.05" departLane="best" from="30417609#0" to="177308073" type="passenger"/>
    <trip id="veh40" depart="42.10" departLane="best" from="30418155#4" to="37501151#3" type="passenger"/>
    <trip id="veh41" depart="43.15" departLane="best" from="184162395#0" to="175999120#1" type="passenger"/>
    <trip id="veh42" depart="44.20" departLane="best" from="69221828" to="30416947#0" type="passenger"/>
    <trip id="veh43" depart="45.26" departLane="best" from="-279550956" to="-194799782#0" type="passenger"/>
    <trip id="veh44" depart="46.31" departLane="best" from="-324241990" to="30801995#4" type="passenger"/>
    <trip id="veh45" depart="47.36" departLane="best" from="33128562" to="266670737" type="passenger"/>
    <trip id="veh46" depart="48.41" departLane="best" from="-266666374#1" to="224716861#3" type="passenger"/>
    <trip id="veh47" depart="49.47" departLane="best" from="69221692#6" to="30417941#4" type="passenger"/>
    <trip id="veh48" depart="50.52" departLane="best" from="39958266#3" to="37351131" type="passenger"/>
    <trip id="veh49" depart="51.57" departLane="best" from="-176910638" to="324991232" type="passenger"/>
    <trip id="veh50" depart="52.62" departLane="best" from="30993435#1" to="30418035#3" type="passenger"/>
    <trip id="veh51" depart="53.68" departLane="best" from="175999108#0" to="30993606#3" type="passenger"/>
    <trip id="veh52" depart="54.73" departLane="best" from="-324317862#3" to="279549602#1" type="passenger"/>
    <trip id="veh53" depart="55.78" departLane="best" from="246519196#0" to="38923009#8" type="passenger"/>
    <trip id="veh54" depart="56.83" departLane="best" from="37350432#0" to="177308074#2" type="passenger"/>
    <trip id="veh55" depart="57.89" departLane="best" from="290618573#0" to="171674593#0" type="passenger"/>
    <trip id="veh56" depart="58.94" departLane="best" from="37720450#1" to="37356160#0" type="passenger"/>
    <trip id="veh57" depart="59.99" departLane="best" from="176954448" to="30993435#3" type="passenger"/>
    <trip id="veh58" depart="61.04" departLane="best" from="30533523#4" to="-41672012#2" type="passenger"/>
    <trip id="veh59" depart="62.10" departLane="best" from="324996453#1" to="30418072#5" type="passenger"/>
    <trip id="veh60" depart="63.15" departLane="best" from="33127321#0" to="30417973#11" type="passenger"/>
    <trip id="veh61" depart="64.20" departLane="best" from="-103992207#0" to="182148339" type="passenger"/>
    <trip id="veh62" depart="65.25" departLane="best" from="-180082654" to="38060291#1" type="passenger"/>
    <trip id="veh63" depart="66.31" departLane="best" from="37351132#0" to="37180897#2" type="passenger"/>
    <trip id="veh64" depart="67.36" departLane="best" from="177308054#6" to="-205013607#0" type="passenger"/>
    <trip id="veh65" depart="68.41" departLane="best" from="37350436#0-AddedOffRampEdge" to="38062736" type="passenger"/>
    <trip id="veh66" depart="69.46" departLane="best" from="-279549603#3" to="300877155#0" type="passenger"/>
    <trip id="veh67" depart="70.52" departLane="best" from="-266666414" to="33128394#0" type="passenger"/>
    <trip id="veh68" depart="71.57" departLane="best" from="32644595" to="-37180457" type="passenger"/>
    <trip id="veh69" depart="72.62" departLane="best" from="268556971" to="304384082#2" type="passenger"/>
    <trip id="veh70" depart="73.67" departLane="best" from="175999097#0" to="37356406#0" type="passenger"/>
    <trip id="veh71" depart="74.73" departLane="best" from="30416808#1" to="325001081" type="passenger"/>
    <trip id="veh72" depart="75.78" departLane="best" from="119447023#1" to="181961191#9" type="passenger"/>
    <trip id="veh73" depart="76.83" departLane="best" from="69221692#3" to="324041271" type="passenger"/>
    <trip id="veh74" depart="77.88" departLane="best" from="207175679" to="30417335#1" type="passenger"/>
    <trip id="veh75" depart="78.94" departLane="best" from="-324751765" to="175999147#1" type="passenger"/>
    <trip id="veh76" depart="79.99" departLane="best" from="178662853" to="30564973#0" type="passenger"/>
    <trip id="veh77" depart="81.04" departLane="best" from="171684933#2" to="175999129#1" type="passenger"/>
    <trip id="veh79" depart="83.15" departLane="best" from="171677012#6" to="37720471" type="passenger"/>
    <trip id="veh80" depart="84.20" departLane="best" from="37180987#0" to="-266666409#3" type="passenger"/>
    <trip id="veh81" depart="85.25" departLane="best" from="171698588#6" to="324578415#1" type="passenger"/>
    <trip id="veh82" depart="86.30" departLane="best" from="169013928#6" to="-37180733#1" type="passenger"/>
    <trip id="veh83" depart="87.36" departLane="best" from="38060288#6" to="30533752#0" type="passenger"/>
    <trip id="veh84" depart="88.41" departLane="best" from="266666416#3" to="37164509#1" type="passenger"/>
    <trip id="veh85" depart="89.46" departLane="best" from="37164516#1" to="171720609#1" type="passenger"/>
    <trip id="veh86" depart="90.51" departLane="best" from="-30533575#0" to="270375655" type="passenger"/>
    <trip id="veh87" depart="91.57" departLane="best" from="200916232" to="290619178#1" type="passenger"/>
    <trip id="veh88" depart="92.62" departLane="best" from="324751767#1" to="324751729#4" type="passenger"/>
    <trip id="veh89" depart="93.67" departLane="best" from="4526387#0" to="-30598962" type="passenger"/>
    <trip id="veh90" depart="94.72" departLane="best" from="184165533#0" to="182857090#2" type="passenger"/>
    <trip id="veh91" depart="95.78" departLane="best" from="37180987#6" to="176910670#1" type="passenger"/>
    <trip id="veh93" depart="97.88" departLane="best" from="194828057#3" to="177338963#1" type="passenger"/>
    <trip id="veh94" depart="98.93" departLane="best" from="172021657#3" to="38060281#1" type="passenger"/>
    <trip id="veh95" depart="99.99" departLane="best" from="224721581" to="37351131" type="passenger"/>
    <trip id="veh96" depart="101.04" departLane="best" from="30416939#2" to="-194799789#0" type="passenger"/>
    <trip id="veh97" depart="102.09" departLane="best" from="69730718" to="37180984#0" type="passenger"/>
    <trip id="veh98" depart="103.14" departLane="best" from="39958266#0" to="38060285" type="passenger"/>
    <trip id="veh99" depart="104.20" departLane="best" from="37180741#0" to="159080707" type="passenger"/>
    <trip id="veh100" depart="105.25" departLane="best" from="29019892#1" to="175999092#2" type="passenger"/>
    <trip id="veh101" depart="106.30" departLane="best" from="184162398" to="-205013607#2" type="passenger"/>
    <trip id="veh102" depart="107.35" departLane="best" from="182007940" to="4526409#3" type="passenger"/>
    <trip id="veh103" depart="108.41" departLane="best" from="175999097#1" to="360937254" type="passenger"/>
    <trip id="veh104" depart="109.46" departLane="best" from="246519206" to="268307751" type="passenger"/>
    <trip id="veh105" depart="110.51" departLane="best" from="38923009#0" to="69221692#5" type="passenger"/>
    <trip id="veh106" depart="111.56" departLane="best" from="30416996" to="324991230" type="passenger"/>
    <trip id="veh107" depart="112.62" departLane="best" from="-37180727#9" to="180762422#1" type="passenger"/>
    <trip id="veh108" depart="113.67" departLane="best" from="30416841#5" to="33128043#0" type="passenger"/>
    <trip id="veh109" depart="114.72" departLane="best" from="-266641404" to="30534063#5" type="passenger"/>
    <trip id="veh110" depart="115.77" departLane="best" from="290618576#0" to="37347754#1" type="passenger"/>
    <trip id="veh111" depart="116.83" departLane="best" from="-37180735#1" to="38923397" type="passenger"/>
    <trip id="veh112" depart="117.88" departLane="best" from="-270375655" to="171698525#3" type="passenger"/>
    <trip id="veh113" depart="118.93" departLane="best" from="304384090" to="324751736" type="passenger"/>
    <trip id="veh114" depart="119.98" departLane="best" from="171698525#4" to="-324994585#1" type="passenger"/>
    <trip id="veh115" depart="121.04" departLane="best" from="37356413" to="176910667#9" type="passenger"/>
    <trip id="veh116" depart="122.09" departLane="best" from="304384082#7" to="30616932" type="passenger"/>
    <trip id="veh117" depart="123.14" departLane="best" from="194799789#2" to="30534063#3" type="passenger"/>
    <trip id="veh118" depart="124.19" departLane="best" from="29062013#7" to="38060305#0" type="passenger"/>
    <trip id="veh119" depart="125.25" departLane="best" from="146634175#0" to="324986673" type="passenger"/>
    <trip id="veh120" depart="126.30" departLane="best" from="171699103#1" to="250563617#2" type="passenger"/>
    <trip id="veh121" depart="127.35" departLane="best" from="30802013#0" to="180878324" type="passenger"/>
    <trip id="veh122" depart="128.40" departLane="best" from="177308069#4" to="33128045#8" type="passenger"/>
    <trip id="veh123" depart="129.46" departLane="best" from="-266670737" to="290618573#1" type="passenger"/>
    <trip id="veh125" depart="131.56" departLane="best" from="-266670737" to="175999088#2" type="passenger"/>
    <trip id="veh126" depart="132.61" departLane="best" from="175999097#1" to="38060303#1" type="passenger"/>
    <trip id="veh127" depart="133.67" departLane="best" from="37351625#1" to="37376908" type="passenger"/>
    <trip id="veh129" depart="135.77" departLane="best" from="37180725#10" to="324985134#1" type="passenger"/>
    <trip id="veh131" depart="137.88" departLane="best" from="30598962" to="-171697946" type="passenger"/>
    <trip id="veh132" depart="138.93" departLane="best" from="37174491#5" to="180762429" type="passenger"/>
    <trip id="veh134" depart="141.03" departLane="best" from="-325001081" to="-324985147#1" type="passenger"/>
    <trip id="veh135" depart="142.09" departLane="best" from="-324041276" to="30529779#0" type="passenger"/>
    <trip id="veh136" depart="143.14" departLane="best" from="175999150" to="30598933#1" type="passenger"/>
    <trip id="veh137" depart="144.19" departLane="best" from="324751744" to="175790472#2" type="passenger"/>
    <trip id="veh138" depart="145.24" departLane="best" from="30564973#6" to="177308074#4" type="passenger"/>
    <trip id="veh139" depart="146.30" departLane="best" from="29019892#7" to="37720471" type="passenger"/>
    <trip id="veh140" depart="147.35" departLane="best" from="200916232" to="177308119#4" type="passenger"/>
    <trip id="veh142" depart="149.45" departLane="best" from="30567551#1" to="177308069#6" type="passenger"/>
    <trip id="veh143" depart="150.51" departLane="best" from="324985138" to="304384082#7" type="passenger"/>
    <trip id="veh144" depart="151.56" departLane="best" from="205013604#0" to="-175999108#1" type="passenger"/>
    <trip id="veh145" depart="152.61" departLane="best" from="-268307751" to="37393857" type="passenger"/>
    <trip id="veh146" depart="153.66" departLane="best" from="37394817#3" to="304384073#1" type="passenger"/>
    <trip id="veh147" depart="154.72" departLane="best" from="37180725#3" to="30534013#3" type="passenger"/>
    <trip id="veh148" depart="155.77" departLane="best" from="-360580450" to="-37180457" type="passenger"/>
    <trip id="veh149" depart="156.82" departLane="best" from="177308054#8" to="37501151#7" type="passenger"/>
    <trip id="veh150" depart="157.87" departLane="best" from="33128565#3" to="37351131" type="passenger"/>
    <trip id="veh151" depart="158.93" departLane="best" from="37394609#2" to="175793384#0" type="passenger"/>
    <trip id="veh152" depart="159.98" departLane="best" from="172021657#2" to="-324241990" type="passenger"/>
    <trip id="veh153" depart="161.03" departLane="best" from="33128043#0" to="37394166" type="passenger"/>
    <trip id="veh154" depart="162.08" departLane="best" from="187567449" to="30616970" type="passenger"/>
    <trip id="veh155" depart="163.14" departLane="best" from="-37180727#8" to="38060291#3" type="passenger"/>
    <trip id="veh156" depart="164.19" departLane="best" from="37295846#2" to="40755249#0" type="passenger"/>
    <trip id="veh157" depart="165.24" departLane="best" from="37174474#1" to="37383981#1" type="passenger"/>
    <trip id="veh158" depart="166.29" departLane="best" from="-180762422#1" to="32644646#3-AddedOffRampEdge" type="passenger"/>
    <trip id="veh159" depart="167.35" departLane="best" from="177308120#1" to="38060293#0" type="passenger"/>
    <trip id="veh160" depart="168.40" departLane="best" from="336455023" to="37351624" type="passenger"/>
    <trip id="veh161" depart="169.45" departLane="best" from="33128293#0" to="-324751743" type="passenger"/>
    <trip id="veh162" depart="170.50" departLane="best" from="169051260" to="37180726#0" type="passenger"/>
    <trip id="veh163" depart="171.56" departLane="best" from="265745121#1" to="181738145#1" type="passenger"/>
    <trip id="veh164" depart="172.61" departLane="best" from="33128565#1" to="176324883#1" type="passenger"/>
    <trip id="veh165" depart="173.66" departLane="best" from="-180762421" to="171751484#3" type="passenger"/>
    <trip id="veh166" depart="174.71" departLane="best" from="177308116" to="37351625#0" type="passenger"/>
    <trip id="veh167" depart="175.77" departLane="best" from="38923503#6" to="177338966" type="passenger"/>
    <trip id="veh168" depart="176.82" departLane="best" from="30598482#3" to="265745120#0" type="passenger"/>
    <trip id="veh169" depart="177.87" departLane="best" from="4526354#0" to="30418035#1" type="passenger"/>
    <trip id="veh170" depart="178.92" departLane="best" from="38060296#1" to="-324985147#1" type="passenger"/>
    <trip id="veh171" depart="179.98" departLane="best" from="39958266#1" to="171674593#0" type="passenger"/>
    <trip id="veh172" depart="181.03" departLane="best" from="38923311#1" to="177308080#3" type="passenger"/>
    <trip id="veh174" depart="183.13" departLane="best" from="324751766" to="181961197" type="passenger"/>
    <trip id="veh175" depart="184.19" departLane="best" from="30533350#1" to="30416961#0" type="passenger"/>
    <trip id="veh176" depart="185.24" departLane="best" from="182175770#0" to="30533904#0" type="passenger"/>
    <trip id="veh177" depart="186.29" departLane="best" from="175790476#1" to="324985722#1" type="passenger"/>
    <trip id="veh179" depart="188.40" departLane="best" from="30416800#2" to="324991232" type="passenger"/>
    <trip id="veh180" depart="189.45" departLane="best" from="324985142#0" to="324579709#1" type="passenger"/>
    <trip id="veh181" depart="190.50" departLane="best" from="181961184#0" to="-266666376" type="passenger"/>
    <trip id="veh183" depart="192.61" departLane="best" from="177308069#0" to="37343419" type="passenger"/>
    <trip id="veh184" depart="193.66" departLane="best" from="177308057#0" to="266666363" type="passenger"/>
    <trip id="veh185" depart="194.71" departLane="best" from="184165530-AddedOffRampEdge" to="180762422#1" type="passenger"/>
    <trip id="veh186" depart="195.76" departLane="best" from="-324985730#0" to="266666417" type="passenger"/>
    <trip id="veh187" depart="196.82" departLane="best" from="38060298" to="324751739#4" type="passenger"/>
    <trip id="veh188" depart="197.87" departLane="best" from="37394817#0" to="30616901" type="passenger"/>
    <trip id="veh189" depart="198.92" departLane="best" from="176954470#6" to="304384082#10" type="passenger"/>
    <trip id="veh190" depart="199.97" departLane="best" from="-103992207#0" to="180135573#2" type="passenger"/>
    <trip id="veh191" depart="201.03" departLane="best" from="205013607#0" to="30533953#6" type="passenger"/>
    <trip id="veh192" depart="202.08" departLane="best" from="30598962" to="290619174#0" type="passenger"/>
    <trip id="veh193" depart="203.13" departLane="best" from="224716861#5" to="175999092#2" type="passenger"/>
    <trip id="veh194" depart="204.18" departLane="best" from="266666417" to="37503195#1" type="passenger"/>
    <trip id="veh195" depart="205.24" departLane="best" from="33128565#3" to="169013928#6" type="passenger"/>
    <trip id="veh196" depart="206.29" departLane="best" from="-279549603#3" to="30417206#4" type="passenger"/>
    <trip id="veh197" depart="207.34" departLane="best" from="30564973#2" to="182857083" type="passenger"/>
    <trip id="veh198" depart="208.39" departLane="best" from="37174492#0" to="33128045#6" type="passenger"/>
    <trip id="veh199" depart="209.45" departLane="best" from="30802013#0" to="175999147#1" type="passenger"/>
    <trip id="veh200" depart="210.50" departLane="best" from="119447023#0" to="-180135573#0" type="passenger"/>
    <trip id="veh201" depart="211.55" departLane="best" from="171772286#2" to="29062008#6" type="passenger"/>
    <trip id="veh202" depart="212.60" departLane="best" from="37180894" to="-266666416#0" type="passenger"/>
    <trip id="veh203" depart="213.66" departLane="best" from="194799782#2" to="30802007#3" type="passenger"/>
    <trip id="veh205" depart="215.76" departLane="best" from="290617322" to="176910667#2" type="passenger"/>
    <trip id="veh206" depart="216.81" departLane="best" from="30598985#0" to="-159554254#0" type="passenger"/>
    <trip id="veh207" depart="217.87" departLane="best" from="324986670" to="33175458" type="passenger"/>
    <trip id="veh209" depart="219.97" departLane="best" from="-38044984" to="38923216#4" type="passenger"/>
    <trip id="veh210" depart="221.02" departLane="best" from="29062008#7" to="-194799789#0" type="passenger"/>
    <trip id="veh211" depart="222.08" departLane="best" from="172021657#1" to="37343420#0" type="passenger"/>
    <trip id="veh212" depart="223.13" departLane="best" from="24684016#4" to="37180296" type="passenger"/>
    <trip id="veh214" depart="225.23" departLane="best" from="304398988#0" to="38922881" type="passenger"/>
    <trip id="veh215" depart="226.29" departLane="best" from="37383972" to="30598985#6" type="passenger"/>
    <trip id="veh216" depart="227.34" departLane="best" from="324751748#2" to="30416921#2" type="passenger"/>
    <trip id="veh217" depart="228.39" departLane="best" from="37180462#1" to="304384082#10" type="passenger"/>
    <trip id="veh218" depart="229.44" departLane="best" from="37394168#1" to="32761348#5" type="passenger"/>
    <trip id="veh219" depart="230.50" departLane="best" from="268556970#1" to="177308060#4" type="passenger"/>
    <trip id="veh220" depart="231.55" departLane="best" from="172020418" to="30979908#3" type="passenger"/>
    <trip id="veh221" depart="232.60" departLane="best" from="32644569#9" to="30417705#2" type="passenger"/>
    <trip id="veh222" depart="233.65" departLane="best" from="30534013#3" to="177308117#2" type="passenger"/>
    <trip id="veh223" depart="234.71" departLane="best" from="-268408771#0" to="180082654" type="passenger"/>
    <trip id="veh224" depart="235.76" departLane="best" from="175999143#1" to="182007938#8" type="passenger"/>
    <trip id="veh225" depart="236.81" departLane="best" from="30416834#1" to="-37180896#1" type="passenger"/>
    <trip id="veh226" depart="237.86" departLane="best" from="171684933#5" to="324751768" type="passenger"/>
    <trip id="veh227" depart="238.92" departLane="best" from="324317862#3" to="-265745121#0" type="passenger"/>
    <trip id="veh228" depart="239.97" departLane="best" from="187567451" to="30418160#1" type="passenger"/>
    <trip id="veh229" depart="241.02" departLane="best" from="194799786#0" to="175790489#1" type="passenger"/>
    <trip id="veh230" depart="242.07" departLane="best" from="194828057#0" to="37720466" type="passenger"/>
    <trip id="veh231" depart="243.13" departLane="best" from="30418155#3" to="324751772" type="passenger"/>
    <trip id="veh232" depart="244.18" departLane="best" from="37180982#2" to="33128564#4" type="passenger"/>
    <trip id="veh233" depart="245.23" departLane="best" from="182015533#3" to="-169017784#0" type="passenger"/>
    <trip id="veh234" depart="246.28" departLane="best" from="180762426" to="33128048#0" type="passenger"/>
    <trip id="veh235" depart="247.34" departLane="best" from="37180897#3" to="38923009#6" type="passenger"/>
    <trip id="veh236" depart="248.39" departLane="best" from="194799789#2" to="33127323#1" type="passenger"/>
    <trip id="veh237" depart="249.44" departLane="best" from="30416921#0" to="30598847#2" type="passenger"/>
    <trip id="veh238" depart="250.49" departLane="best" from="169051258#0" to="175999120#1" type="passenger"/>
    <trip id="veh239" depart="251.55" departLane="best" from="205013618#4-AddedOnRampEdge" to="-180762422#0" type="passenger"/>
    <trip id="veh240" depart="252.60" departLane="best" from="177338976" to="324751743" type="passenger"/>
    <trip id="veh242" depart="254.70" departLane="best" from="266666376" to="-37180457" type="passenger"/>
    <trip id="veh243" depart="255.76" departLane="best" from="30533953#5" to="-180135576" type="passenger"/>
    <trip id="veh244" depart="256.81" departLane="best" from="182857083" to="30533407#0" type="passenger"/>
    <trip id="veh246" depart="258.91" departLane="best" from="-326910418" to="290618576#2" type="passenger"/>
    <trip id="veh247" depart="259.97" departLane="best" from="-250563617#1" to="207175682#1" type="passenger"/>
    <trip id="veh249" depart="262.07" departLane="best" from="324996450#2" to="207175682#1" type="passenger"/>
    <trip id="veh250" depart="263.12" departLane="best" from="324986673" to="37180897#3" type="passenger"/>
    <trip id="veh251" depart="264.18" departLane="best" from="175790472#11" to="-279549603#1" type="passenger"/>
    <trip id="veh252" depart="265.23" departLane="best" from="-180082654" to="30418072#5" type="passenger"/>
    <trip id="veh253" depart="266.28" departLane="best" from="99005064" to="187567450#1" type="passenger"/>
    <trip id="veh254" depart="267.33" departLane="best" from="30598938#1" to="351721378" type="passenger"/>
    <trip id="veh255" depart="268.39" departLane="best" from="30598948#2" to="33128049" type="passenger"/>
    <trip id="veh256" depart="269.44" departLane="best" from="38060327#1" to="172020977#2" type="passenger"/>
    <trip id="veh257" depart="270.49" departLane="best" from="-180082654" to="-41672012#0" type="passenger"/>
    <trip id="veh258" depart="271.54" departLane="best" from="-324985723" to="324578415#3" type="passenger"/>
    <trip id="veh259" depart="272.60" departLane="best" from="30417705#5" to="175999108#2" type="passenger"/>
    <trip id="veh260" depart="273.65" departLane="best" from="324043271" to="33128565#2" type="passenger"/>
    <trip id="veh261" depart="274.70" departLane="best" from="-37355824" to="30598948#0" type="passenger"/>
    <trip id="veh262" depart="275.75" departLane="best" from="37174492#3" to="38923644#1" type="passenger"/>
    <trip id="veh264" depart="277.86" departLane="best" from="177308060#2" to="324751739#4" type="passenger"/>
    <trip id="veh265" depart="278.91" departLane="best" from="38923009#4" to="250563619#0" type="passenger"/>
    <trip id="veh266" depart="279.96" departLane="best" from="324751739#3" to="-268556971" type="passenger"/>
    <trip id="veh267" depart="281.02" departLane="best" from="31545447#1" to="30801995#3" type="passenger"/>
    <trip id="veh268" depart="282.07" departLane="best" from="-30567637#3" to="33175708" type="passenger"/>
    <trip id="veh269" depart="283.12" departLane="best" from="37180894" to="30598584#2" type="passenger"/>
    <trip id="veh270" depart="284.17" departLane="best" from="-324751765" to="4526387#5" type="passenger"/>
    <trip id="veh271" depart="285.23" departLane="best" from="33128045#4" to="184796749#6" type="passenger"/>
    <trip id="veh272" depart="286.28" departLane="best" from="205013604#2" to="205013607#2" type="passenger"/>
    <trip id="veh273" depart="287.33" departLane="best" from="290618576#8" to="184162395#1" type="passenger"/>
    <trip id="veh274" depart="288.38" departLane="best" from="37180894" to="37180732#0" type="passenger"/>
    <trip id="veh275" depart="289.44" departLane="best" from="-30616970" to="38923397" type="passenger"/>
    <trip id="veh276" depart="290.49" departLane="best" from="30565122#3" to="37180741#0" type="passenger"/>
    <trip id="veh277" depart="291.54" departLane="best" from="324317862#6" to="279549603#2" type="passenger"/>
    <trip id="veh278" depart="292.59" departLane="best" from="324752295#3" to="39958266#2" type="passenger"/>
    <trip id="veh279" depart="293.65" departLane="best" from="175999132#0" to="37180459#0" type="passenger"/>
    <trip id="veh280" depart="294.70" departLane="best" from="30416800#1" to="29062014#6" type="passenger"/>
    <trip id="veh281" depart="295.75" departLane="best" from="205013618#4" to="32644569#10" type="passenger"/>
    <trip id="veh282" depart="296.80" departLane="best" from="175999120#1" to="37347752" type="passenger"/>
    <trip id="veh283" depart="297.86" departLane="best" from="37180462#1" to="-29062003#2" type="passenger"/>
    <trip id="veh284" depart="298.91" departLane="best" from="37351626" to="176910667#2" type="passenger"/>
    <trip id="veh285" depart="299.96" departLane="best" from="266666359" to="30598983#1" type="passenger"/>
    <trip id="veh286" depart="301.01" departLane="best" from="182007940" to="-180762422#0" type="passenger"/>
    <trip id="veh287" depart="302.07" departLane="best" from="37180895#0" to="171684933#0" type="passenger"/>
    <trip id="veh288" depart="303.12" departLane="best" from="169013928#0" to="37174492#5" type="passenger"/>
    <trip id="veh289" depart="304.17" departLane="best" from="180135576" to="37383974" type="passenger"/>
    <trip id="veh290" depart="305.22" departLane="best" from="324043274" to="177308119#3" type="passenger"/>
    <trip id="veh291" depart="306.28" departLane="best" from="-176908068#3" to="38922730#2" type="passenger"/>