<?xml version="1.0" encoding="UTF-8"?>

<!-- generated on Wed Sep  9 15:38:14 2015 by SUMO polyconvert Version dev-SVN-r18813I
<?xml version="1.0" encoding="UTF-8"?>

<configuration xmlns:xsi="http://www.w3.org/2001/XMLSchema-instance" xsi:noNamespaceSchemaLocation="http://sumo.dlr.de/xsd/polyconvertConfiguration.xsd">

    <input>
        <net-file value="/scr2/sip-svn-trunk/papers/DLR/ITSC_2015/sumo_tutorial/osm/2015-09-09-15-38-09/osm.net.xml"/>
        <osm-files value="osm_bbox.osm.xml"/>
        <osm.keep-full-type value="true"/>
        <type-file value="/scr1/sumoI/sumo/data/typemap/osmPolyconvert.typ.xml"/>
    </input>

    <output>
        <output-file value="/scr2/sip-svn-trunk/papers/DLR/ITSC_2015/sumo_tutorial/osm/2015-09-09-15-38-09/osm.poly.xml"/>
    </output>

    <processing>
        <poi-layer-offset value="5"/>
    </processing>

    <report>
        <verbose value="true"/>
    </report>

</configuration>
-->

<additional xmlns:xsi="http://www.w3.org/2001/XMLSchema-instance" xsi:noNamespaceSchemaLocation="http://sumo.dlr.de/xsd/additional_file.xsd">
    <location netOffset="-452366.43,-3109246.14" convBoundary="-74248.75,-8554.20,191207.34,96481.92" origBoundary="-16.245001,28.030936,-13.526426,28.971550" projParameter="+proj=utm +zone=28 +ellps=WGS84 +datum=WGS84 +units=m +no_defs"/>

    <poly id="100190262" type="man_made.pier" color="255,230,230" fill="0" layer="-1.00" shape="5606.25,2213.03 5625.84,2214.58 5629.10,2186.94 5813.26,2210.50"/>
    <poly id="100190263" type="man_made.pier" color="255,230,230" fill="0" layer="-1.00" shape="5645.05,2094.06 5657.62,2102.52 5742.69,2155.23"/>
    <poly id="100190266" type="man_made.pier" color="255,230,230" fill="0" layer="-1.00" shape="5858.10,1714.99 5885.59,1732.58"/>
    <poly id="100190267" type="man_made.pier" color="255,230,230" fill="0" layer="-1.00" shape="5632.14,2312.73 5641.98,2258.27"/>
    <poly id="100190268" type="man_made.pier" color="255,230,230" fill="0" layer="-1.00" shape="5788.89,1824.71 5857.39,1869.61"/>
    <poly id="100190269" type="man_made.pier" color="255,230,230" fill="0" layer="-1.00" shape="5685.97,1987.36 5698.61,1995.50 5786.77,2051.23"/>
    <poly id="100190271" type="man_made.pier" color="255,230,230" fill="0" layer="-1.00" shape="5893.07,2086.84 5884.15,2142.21"/>
    <poly id="100190274" type="man_made.pier" color="255,230,230" fill="0" layer="-1.00" shape="5845.88,1734.25 5879.17,1755.69"/>
    <poly id="100190275" type="man_made.pier" color="255,230,230" fill="0" layer="-1.00" shape="5752.09,1882.17 5783.31,1900.85"/>
    <poly id="100190276" type="man_made.pier" color="255,230,230" fill="0" layer="-1.00" shape="5734.15,1910.75 5826.80,1966.28"/>
    <poly id="100190281" type="man_made.pier" color="255,230,230" fill="0" layer="-1.00" shape="5770.77,1853.40 5851.05,1906.04"/>
    <poly id="100190282" type="man_made.pier" color="255,230,230" fill="0" layer="-1.00" shape="5666.36,2045.01 5791.33,2123.10"/>
    <poly id="100190283" type="man_made.pier" color="255,230,230" fill="0" layer="-1.00" shape="5713.76,1942.61 5799.79,1994.32"/>
    <poly id="100190288" type="man_made.pier" color="255,230,230" fill="0" layer="-1.00" shape="5670.46,2318.05 5681.17,2254.50"/>
    <poly id="100190289" type="man_made.pier" color="255,230,230" fill="0" layer="-1.00" shape="5814.63,2342.94 5830.59,2252.44"/>
    <poly id="100190291" type="man_made.pier" color="255,230,230" fill="0" layer="-1.00" shape="5882.15,2353.58 5898.26,2268.26"/>
    <poly id="100190295" type="man_made.pier" color="255,230,230" fill="0" layer="-1.00" shape="5918.53,2153.81 5909.57,2152.73"/>
    <poly id="100190296" type="man_made.pier" color="255,230,230" fill="0" layer="-1.00" shape="5832.02,1756.12 5875.03,1783.50"/>
    <poly id="100190297" type="man_made.pier" color="255,230,230" fill="0" layer="-1.00" shape="5716.08,2326.05 5729.50,2251.61"/>
    <poly id="119037770" type="amenity.hospital" color="237,199,199" fill="1" layer="-1.00" shape="6005.21,4508.90 6011.20,4477.11 6062.42,4486.65 6056.43,4518.44 6005.21,4508.90"/>
    <poly id="119037885" type="building.yes" color="255,230,230" fill="1" layer="-1.00" shape="5998.15,4542.28 6004.12,4510.96 6055.04,4520.56 6049.06,4551.88 5998.15,4542.28"/>
    <poly id="119037886" type="shop.supermarket" color="237,199,255" fill="1" layer="-1.00" shape="5992.94,4576.78 6000.03,4542.92 6045.84,4551.27 6038.05,4585.76 5992.94,4576.78"/>
    <poly id="119039018" type="amenity.school" color="237,199,199" fill="1" layer="-1.00" shape="6043.80,4586.86 6157.59,4609.81 6175.63,4521.30 6177.50,4512.15 6159.43,4508.50 6063.70,4489.19 6043.80,4586.86"/>
    <poly id="119108988" type="landuse.recreation_ground" color="194,194,130" fill="1" layer="-3.00" shape="5443.14,3794.63 5404.43,3791.28 5403.76,3826.27 5442.75,3820.57 5443.14,3794.63"/>
    <poly id="119108988#1" type="leisure.pitch" color="207,245,201" fill="1" layer="-2.00" shape="5443.14,3794.63 5404.43,3791.28 5403.76,3826.27 5442.75,3820.57 5443.14,3794.63"/>
    <poly id="119108988#2" type="sport.skateboard" color="79,230,125" fill="1" layer="-2.00" shape="5443.14,3794.63 5404.43,3791.28 5403.76,3826.27 5442.75,3820.57 5443.14,3794.63"/>
    <poly id="119110526" type="amenity.marketplace" color="237,199,199" fill="1" layer="-1.00" shape="5470.32,4372.59 5513.09,4360.75 5525.20,4404.49 5481.50,4415.65 5470.32,4372.59"/>
    <poly id="126808548" type="building.yes" color="255,230,230" fill="1" layer="-1.00" shape="5936.11,4505.99 5917.32,4512.00 5916.69,4513.66 5914.73,4513.91 5913.20,4512.82 5913.03,4511.48 5913.58,4510.22 5907.18,4490.02 5904.45,4489.21 5903.09,4486.90 5903.21,4484.03 5904.92,4481.98 5907.53,4481.09 5910.08,4481.49 5911.91,4483.79 5932.28,4477.43 5939.34,4499.67 5941.45,4500.59 5942.40,4502.13 5942.61,4504.02 5941.85,4506.36 5939.90,4507.29 5938.13,4507.47 5936.86,4507.05 5936.11,4505.99"/>
    <poly id="126808548#1" type="historic.castle" color="128,255,128" fill="1" layer="-1.00" shape="5936.11,4505.99 5917.32,4512.00 5916.69,4513.66 5914.73,4513.91 5913.20,4512.82 5913.03,4511.48 5913.58,4510.22 5907.18,4490.02 5904.45,4489.21 5903.09,4486.90 5903.21,4484.03 5904.92,4481.98 5907.53,4481.09 5910.08,4481.49 5911.91,4483.79 5932.28,4477.43 5939.34,4499.67 5941.45,4500.59 5942.40,4502.13 5942.61,4504.02 5941.85,4506.36 5939.90,4507.29 5938.13,4507.47 5936.86,4507.05 5936.11,4505.99"/>
    <poly id="131985226" type="building.yes" color="255,230,230" fill="1" layer="-1.00" shape="6014.29,1224.68 5982.12,1268.14 6002.50,1284.38 6036.80,1240.15 6014.29,1224.68"/>
    <poly id="131996343" type="building.yes" color="255,230,230" fill="1" layer="-1.00" shape="6035.78,1364.79 6059.97,1338.14 6038.44,1313.12 5981.76,1267.88 5957.57,1294.53 6035.78,1364.79"/>
    <poly id="131996344" type="leisure.park" color="207,245,201" fill="1" layer="-2.00" shape="6066.70,1276.84 6036.80,1240.15 6002.50,1284.38 6013.11,1293.89 6038.44,1313.12 6058.47,1287.86 6066.70,1276.84"/>
    <poly id="131998637" type="leisure.pitch" color="207,245,201" fill="1" layer="-2.00" shape="6047.04,1262.29 6038.80,1273.31 6058.47,1287.86 6066.70,1276.84 6047.04,1262.29"/>
    <poly id="131998637#1" type="sport.basketball" color="79,230,125" fill="1" layer="-2.00" shape="6047.04,1262.29 6038.80,1273.31 6058.47,1287.86 6066.70,1276.84 6047.04,1262.29"/>
    <poly id="131998640" type="leisure.pitch" color="207,245,201" fill="1" layer="-2.00" shape="6030.30,1302.64 6040.68,1310.99 6047.79,1302.24 6037.41,1293.88 6030.30,1302.64"/>
    <poly id="131998640#1" type="sport.basketball" color="79,230,125" fill="1" layer="-2.00" shape="6030.30,1302.64 6040.68,1310.99 6047.79,1302.24 6037.41,1293.88 6030.30,1302.64"/>
    <poly id="132000826" type="leisure.pitch" color="207,245,201" fill="1" layer="-2.00" shape="6040.18,1291.49 6050.10,1298.65 6056.25,1290.20 6046.32,1283.05 6040.18,1291.49"/>
    <poly id="132000826#1" type="sport.basketball" color="79,230,125" fill="1" layer="-2.00" shape="6040.18,1291.49 6050.10,1298.65 6056.25,1290.20 6046.32,1283.05 6040.18,1291.49"/>
    <poly id="132001414" type="leisure.playground" color="207,245,201" fill="1" layer="-2.00" shape="6013.11,1293.89 6024.55,1303.87 6036.99,1289.39 6031.76,1284.63 6029.62,1288.22 6024.66,1287.89 6021.20,1284.15 6013.11,1293.89"/>
    <poly id="132003223" type="building.yes" color="255,230,230" fill="1" layer="-1.00" shape="6078.18,1265.58 6043.33,1236.71 6094.95,1168.94 6132.17,1198.27 6078.18,1265.58"/>
    <poly id="132005596" type="building.yes" color="255,230,230" fill="1" layer="-1.00" shape="6091.97,1312.63 6102.45,1298.96 6066.70,1276.84 6058.47,1287.86 6091.97,1312.63"/>
    <poly id="132006246" type="leisure.track" color="207,245,201" fill="1" layer="-2.00" shape="5815.85,1593.94 5837.77,1608.48 5518.98,2109.86 5546.65,2022.04 5815.85,1593.94"/>
    <poly id="141892111" type="leisure.common" color="207,245,201" fill="1" layer="-2.00" shape="4889.35,1995.44 4894.97,1987.53 4896.94,1984.03 4896.93,1980.54 4896.30,1975.52 4894.46,1972.80 4888.34,1966.76 4877.92,1957.22 4882.52,1964.34 4885.90,1970.40 4887.91,1975.55 4888.39,1981.78 4888.41,1988.16 4886.60,1994.85 4883.87,1999.71 4881.95,2004.36 4889.35,1995.44"/>
    <poly id="141892655" type="leisure.garden" color="207,245,201" fill="1" layer="-2.00" shape="4875.62,1991.63 4877.70,1987.26 4878.06,1980.04 4876.52,1973.21 4873.44,1966.59 4867.30,1957.68 4833.23,1926.12 4786.90,1881.50 4774.08,1868.45 4767.75,1858.60 4761.60,1847.43 4757.94,1837.58 4753.88,1821.84 4752.30,1806.48 4753.02,1792.99 4757.14,1773.06 4762.59,1751.41 4765.59,1737.54 4766.33,1730.13 4764.60,1725.40 4762.09,1721.80 4757.49,1718.60 4752.31,1718.14 4748.31,1718.73 4744.90,1720.40 4738.67,1726.83 4727.00,1739.99 4716.59,1751.49 4716.41,1757.42 4721.15,1771.50 4735.30,1814.82 4747.94,1852.13 4755.80,1873.05 4758.57,1879.26 4764.41,1887.74 4771.14,1895.46 4780.03,1904.53 4801.16,1924.20 4819.54,1942.04 4839.58,1958.37 4853.20,1968.94 4858.87,1973.02 4863.16,1977.71 4863.78,1981.20 4862.28,1989.56 4862.75,1991.68 4866.88,1993.64 4868.71,1992.57 4869.15,1989.38 4870.67,1987.70 4873.27,1987.09 4874.34,1988.30 4875.62,1991.63"/>
    <poly id="169015050" type="leisure.park" color="207,245,201" fill="1" layer="-2.00" shape="4923.64,2263.21 5110.65,2259.40 5108.26,2218.66 5006.12,2237.37 4924.60,2235.96 4923.64,2263.21"/>
    <poly id="169015054" type="leisure.park" color="207,245,201" fill="1" layer="-2.00" shape="5554.42,2010.98 5545.83,2003.80 5555.23,1979.66 5549.56,1976.40 5572.57,1927.06 5558.83,1917.15 5596.01,1851.50 5633.21,1872.05 5657.22,1830.91 5663.88,1834.90 5554.42,2010.98"/>
    <poly id="169015056" type="leisure.park" color="207,245,201" fill="1" layer="-2.00" shape="5622.49,1723.91 5638.45,1733.03 5725.67,1589.12 5737.68,1596.54 5754.52,1567.80 5809.89,1601.79 5815.85,1593.94 5782.44,1567.18 5779.38,1559.72 5778.69,1550.42 5777.62,1546.23 5772.47,1541.93 5749.17,1528.89 5745.35,1528.65 5741.67,1530.36 5738.92,1534.43 5732.97,1545.73 5723.53,1557.30 5622.49,1723.91"/>
    <poly id="170268766" type="building.yes" color="255,230,230" fill="1" layer="-1.00" shape="5323.83,3811.45 5325.45,3840.04 5322.91,3844.89 5302.53,3848.65 5300.38,3829.40 5284.53,3828.33 5283.53,3818.63 5293.38,3818.96 5293.70,3810.28 5311.19,3810.96 5323.83,3811.45"/>
    <poly id="170268767" type="building.yes" color="255,230,230" fill="1" layer="-1.00" shape="5306.21,3856.88 5295.86,3858.76 5298.22,3868.17 5301.15,3867.44 5302.64,3873.37 5303.72,3877.68 5304.23,3879.70 5311.41,3877.92 5309.02,3868.40 5308.01,3864.35 5306.21,3856.88"/>
    <poly id="170268768" type="building.yes" color="255,230,230" fill="1" layer="-1.00" shape="5378.00,3780.04 5354.87,3778.60 5355.35,3768.12 5352.92,3770.30 5349.68,3771.13 5345.70,3769.60 5343.75,3764.93 5345.50,3760.55 5349.87,3759.04 5353.45,3760.27 5355.57,3762.94 5356.11,3751.87 5378.95,3753.44 5393.19,3754.53 5391.78,3780.69 5378.00,3780.04"/>
    <poly id="170268769" type="building.yes" color="255,230,230" fill="1" layer="-1.00" shape="5282.48,3906.19 5285.86,3919.67 5307.48,3914.30 5304.09,3900.82 5282.48,3906.19"/>
    <poly id="170268770" type="building.yes" color="255,230,230" fill="1" layer="-1.00" shape="5330.39,3873.21 5332.74,3882.57 5313.76,3887.29 5311.41,3877.92 5330.39,3873.21"/>
    <poly id="170268771" type="building.yes" color="255,230,230" fill="1" layer="-1.00" shape="5327.57,3909.32 5338.75,3906.53 5335.37,3893.05 5324.18,3895.83 5327.57,3909.32"/>
    <poly id="170268772" type="building.yes" color="255,230,230" fill="1" layer="-1.00" shape="5281.59,3861.74 5271.59,3863.63 5275.36,3877.83 5284.84,3875.47 5281.59,3861.74"/>
    <poly id="170268773" type="building.yes" color="255,230,230" fill="1" layer="-1.00" shape="5328.01,3863.69 5330.39,3873.21 5311.41,3877.92 5309.02,3868.40 5319.37,3865.82 5328.01,3863.69"/>
    <poly id="170268774" type="building.yes" color="255,230,230" fill="1" layer="-1.00" shape="5285.05,3851.39 5271.84,3853.85 5268.85,3827.35 5282.07,3828.23 5285.05,3851.39"/>
    <poly id="170268775" type="building.yes" color="255,230,230" fill="1" layer="-1.00" shape="5268.85,3827.35 5265.67,3817.85 5283.53,3818.63 5284.53,3828.33 5282.07,3828.23 5268.85,3827.35"/>
    <poly id="170268776" type="building.yes" color="255,230,230" fill="1" layer="-1.00" shape="5275.36,3877.83 5277.81,3887.60 5287.29,3885.25 5286.47,3881.96 5284.84,3875.47 5275.36,3877.83"/>
    <poly id="170268777" type="building.yes" color="255,230,230" fill="1" layer="-1.00" shape="5302.53,3848.65 5285.05,3851.39 5282.07,3828.23 5284.53,3828.33 5300.38,3829.40 5302.53,3848.65"/>
    <poly id="170268778" type="building.yes" color="255,230,230" fill="1" layer="-1.00" shape="5307.48,3914.30 5327.57,3909.32 5324.18,3895.83 5314.07,3898.35 5308.50,3899.72 5304.09,3900.82 5307.48,3914.30"/>
    <poly id="170268779" type="building.yes" color="255,230,230" fill="1" layer="-1.00" shape="5335.37,3893.05 5332.74,3882.57 5313.76,3887.29 5311.44,3887.87 5314.07,3898.35 5324.18,3895.83 5335.37,3893.05"/>
    <poly id="170268780" type="building.yes" color="255,230,230" fill="1" layer="-1.00" shape="5323.83,3811.45 5311.19,3810.96 5311.21,3802.74 5311.27,3785.14 5318.98,3785.77 5323.07,3790.81 5323.83,3811.45"/>
    <poly id="170268781" type="building.yes" color="255,230,230" fill="0" layer="-1.00" shape="5260.88,3803.28 5265.37,3803.38 5271.86,3803.55 5279.86,3803.94 5293.82,3804.63 5293.70,3810.28 5293.38,3818.96 5283.53,3818.63"/>
    <poly id="170268782" type="building.yes" color="255,230,230" fill="1" layer="-1.00" shape="5277.81,3887.60 5282.48,3906.19 5304.09,3900.82 5308.50,3899.72 5303.84,3881.13 5287.29,3885.25 5277.81,3887.60"/>
    <poly id="170268783" type="building.yes" color="255,230,230" fill="1" layer="-1.00" shape="5305.92,3802.36 5293.96,3801.34 5293.82,3804.63 5293.70,3810.28 5311.19,3810.96 5311.21,3802.74 5305.92,3802.36"/>
    <poly id="170268784" type="building.yes" color="255,230,230" fill="1" layer="-1.00" shape="5311.27,3785.14 5288.08,3783.75 5287.54,3795.66 5305.99,3796.49 5305.92,3802.36 5311.21,3802.74 5311.27,3785.14"/>
    <poly id="170268785" type="building.yes" color="255,230,230" fill="1" layer="-1.00" shape="5322.45,3854.15 5326.40,3856.55 5328.01,3863.69 5319.37,3865.82 5318.65,3862.35 5308.01,3864.35 5306.21,3856.88 5322.45,3854.15"/>
    <poly id="170268786" type="building.yes" color="255,230,230" fill="1" layer="-1.00" shape="5295.86,3858.76 5281.59,3861.74 5284.84,3875.47 5286.47,3881.96 5303.72,3877.68 5302.64,3873.37 5299.71,3874.10 5298.22,3868.17 5295.86,3858.76"/>
    <poly id="171689297" type="leisure.pitch" color="207,245,201" fill="1" layer="-2.00" shape="3369.14,2269.40 3390.82,2221.07 3420.00,2234.02 3398.32,2282.35 3369.14,2269.40"/>
    <poly id="171689297#1" type="sport.soccer" color="79,230,125" fill="1" layer="-2.00" shape="3369.14,2269.40 3390.82,2221.07 3420.00,2234.02 3398.32,2282.35 3369.14,2269.40"/>
    <poly id="171689298" type="leisure.pitch" color="207,245,201" fill="1" layer="-2.00" shape="3362.83,2266.88 3381.31,2218.48 3348.01,2205.90 3329.53,2254.30 3362.83,2266.88"/>
    <poly id="171689298#1" type="sport.soccer" color="79,230,125" fill="1" layer="-2.00" shape="3362.83,2266.88 3381.31,2218.48 3348.01,2205.90 3329.53,2254.30 3362.83,2266.88"/>
    <poly id="171690049" type="amenity.school" color="237,199,199" fill="1" layer="-1.00" shape="3702.32,2300.94 3787.57,2203.94 3825.63,2238.13 3738.80,2335.93 3702.32,2300.94"/>
    <poly id="171695295" type="building.yes" color="255,230,230" fill="1" layer="-1.00" shape="5429.89,4187.99 5416.29,4141.98 5439.55,4135.52 5453.33,4182.16 5429.89,4187.99"/>
    <poly id="171746950" type="leisure.park" color="207,245,201" fill="1" layer="-2.00" shape="6178.99,4644.91 6263.23,4661.09 6259.30,4680.19 6175.44,4663.88 6178.99,4644.91"/>
    <poly id="171751120" type="leisure.park" color="207,245,201" fill="1" layer="-2.00" shape="6022.28,4891.61 6049.38,4896.90 6050.71,4881.68 6045.47,4880.40 6022.28,4891.61"/>
    <poly id="171751416" type="leisure.park" color="207,245,201" fill="1" layer="-2.00" shape="5940.76,5088.07 5941.44,5064.40 5928.11,5062.70 5920.87,5088.01 5940.76,5088.07"/>
    <poly id="171751534" type="leisure.park" color="207,245,201" fill="1" layer="-2.00" shape="5578.59,4826.02 5616.88,4799.17 5582.04,4798.10 5578.59,4826.02"/>
    <poly id="171751790" type="amenity.school" color="237,199,199" fill="1" layer="-1.00" shape="5432.20,5042.13 5505.50,5056.50 5514.85,5003.92 5441.71,4988.91 5432.20,5042.13"/>
    <poly id="171873872" type="building.shops" color="255,230,230" fill="1" layer="-1.00" shape="5643.17,3649.41 5796.28,3673.25 5791.92,3697.82 5672.23,3824.60 5661.93,3814.53 5589.78,3747.08 5606.84,3728.40 5628.26,3726.94 5620.83,3712.56 5635.23,3712.06 5645.94,3689.76 5639.43,3685.77 5631.18,3685.88 5628.10,3681.09 5628.51,3676.72 5633.51,3674.60 5636.68,3675.46 5639.93,3676.33 5643.17,3649.41"/>
    <poly id="171873872#1" type="shop.mall" color="237,199,255" fill="1" layer="-1.00" shape="5643.17,3649.41 5796.28,3673.25 5791.92,3697.82 5672.23,3824.60 5661.93,3814.53 5589.78,3747.08 5606.84,3728.40 5628.26,3726.94 5620.83,3712.56 5635.23,3712.06 5645.94,3689.76 5639.43,3685.77 5631.18,3685.88 5628.10,3681.09 5628.51,3676.72 5633.51,3674.60 5636.68,3675.46 5639.93,3676.33 5643.17,3649.41"/>
    <poly id="175793374" type="leisure.sports_centre" color="207,245,201" fill="1" layer="-2.00" shape="5516.58,1486.07 5498.79,1479.02 5472.59,1485.15 5465.23,1509.40 5550.59,1538.74 5559.80,1509.53 5552.90,1507.33 5554.46,1501.29 5516.58,1486.07"/>
    <poly id="175793374#1" type="sport.table_tennis" color="79,230,125" fill="1" layer="-2.00" shape="5516.58,1486.07 5498.79,1479.02 5472.59,1485.15 5465.23,1509.40 5550.59,1538.74 5559.80,1509.53 5552.90,1507.33 5554.46,1501.29 5516.58,1486.07"/>
    <poly id="175999078" type="leisure.park" color="207,245,201" fill="1" layer="-2.00" shape="4701.07,1589.93 4707.95,1615.95 4707.69,1618.85 4705.07,1620.68 4700.05,1619.13 4689.28,1607.53 4676.77,1590.39 4664.65,1570.93 4650.61,1550.54 4639.56,1534.80 4634.13,1526.86 4618.05,1505.06 4601.64,1483.90 4586.49,1463.09 4571.66,1444.01 4558.43,1427.56 4545.99,1409.78 4537.53,1385.07 4535.34,1362.01 4533.60,1335.40 4534.90,1313.79 4540.80,1286.63 4543.07,1258.57 4542.79,1237.50 4540.86,1211.31 4535.69,1185.23 4521.95,1157.13 4502.29,1125.87 4494.02,1101.26 4491.57,1077.17 4489.63,1050.96 4490.12,1040.74 4493.78,1033.65 4500.88,1027.60 4515.93,1019.83 4527.71,1019.64 4541.44,1025.88 4569.69,1042.29 4588.71,1058.47 4602.50,1081.74 4609.71,1111.33 4609.63,1142.13 4608.32,1164.01 4606.89,1186.43 4606.67,1215.62 4608.94,1244.34 4615.37,1271.05 4619.58,1291.32 4629.45,1324.31 4636.39,1349.69 4645.01,1383.63 4652.75,1411.38 4658.55,1431.65 4667.09,1461.75 4674.82,1488.72 4683.36,1518.82 4692.70,1552.85 4701.07,1589.93"/>
    <poly id="175999103" type="leisure.park" color="207,245,201" fill="1" layer="-2.00" shape="4860.09,1286.52 4930.59,1184.06 4976.67,1236.21 4872.51,1300.10 4860.09,1286.52"/>
    <poly id="176907475" type="amenity.parking" color="184,184,179" fill="1" layer="-1.00" shape="5632.31,1870.33 5656.14,1829.77 5591.73,1793.57 5573.53,1825.92 5604.55,1842.00 5598.91,1852.05 5632.31,1870.33"/>
    <poly id="176908063" type="amenity.parking" color="184,184,179" fill="1" layer="-1.00" shape="5905.95,1595.74 5954.29,1534.57 5960.11,1541.88 5953.59,1636.76 5945.10,1641.86 5931.97,1632.23 5912.99,1628.00 5923.38,1610.35 5905.95,1595.74"/>
    <poly id="176910643" type="leisure.park" color="207,245,201" fill="1" layer="-2.00" shape="5007.52,1482.03 5037.65,1433.18 5045.04,1436.30 5035.74,1470.72 5017.03,1487.77 5007.52,1482.03"/>
    <poly id="176910674" type="amenity.parking" color="184,184,179" fill="1" layer="-1.00" shape="5417.68,1404.06 5437.38,1370.49 5441.79,1372.79 5418.76,1413.75 5417.68,1404.06"/>
    <poly id="178662845" type="aeroway.helipad" color="grey" fill="1" layer="-2.00" shape="4058.45,1577.15 4069.48,1553.35 4095.28,1564.96 4084.36,1590.51 4058.45,1577.15"/>
    <poly id="179731493" type="amenity.swimming_pool" color="237,199,199" fill="1" layer="-1.00" shape="5487.78,1473.07 5493.84,1471.48 5491.17,1460.74 5484.59,1462.34 5487.78,1473.07"/>
    <poly id="179731493#1" type="sport.swimming" color="79,230,125" fill="1" layer="-2.00" shape="5487.78,1473.07 5493.84,1471.48 5491.17,1460.74 5484.59,1462.34 5487.78,1473.07"/>
    <poly id="179731494" type="leisure.pitch" color="207,245,201" fill="1" layer="-2.00" shape="5581.61,1646.35 5600.87,1614.89 5617.81,1625.16 5598.54,1656.62 5581.61,1646.35"/>
    <poly id="179731494#1" type="sport.soccer" color="79,230,125" fill="1" layer="-2.00" shape="5581.61,1646.35 5600.87,1614.89 5617.81,1625.16 5598.54,1656.62 5581.61,1646.35"/>
    <poly id="179731495" type="leisure.pitch" color="207,245,201" fill="1" layer="-2.00" shape="5629.59,1619.55 5644.03,1596.38 5656.62,1604.15 5642.18,1627.32 5629.59,1619.55"/>
    <poly id="179731495#1" type="sport.basketball" color="79,230,125" fill="1" layer="-2.00" shape="5629.59,1619.55 5644.03,1596.38 5656.62,1604.15 5642.18,1627.32 5629.59,1619.55"/>
    <poly id="179731498" type="leisure.pitch" color="207,245,201" fill="1" layer="-2.00" shape="5602.94,1610.71 5623.30,1577.20 5640.29,1587.41 5619.93,1620.93 5602.94,1610.71"/>
    <poly id="179731498#1" type="sport.soccer" color="79,230,125" fill="1" layer="-2.00" shape="5602.94,1610.71 5623.30,1577.20 5640.29,1587.41 5619.93,1620.93 5602.94,1610.71"/>
    <poly id="179731499" type="leisure.pitch" color="207,245,201" fill="1" layer="-2.00" shape="5607.50,1654.83 5621.38,1632.71 5633.32,1640.13 5619.45,1662.25 5607.50,1654.83"/>
    <poly id="179731499#1" type="sport.basketball" color="79,230,125" fill="1" layer="-2.00" shape="5607.50,1654.83 5621.38,1632.71 5633.32,1640.13 5619.45,1662.25 5607.50,1654.83"/>
    <poly id="179731506" type="leisure.pitch" color="207,245,201" fill="1" layer="-2.00" shape="5665.00,1726.31 5676.91,1706.65 5687.18,1712.81 5675.26,1732.47 5665.00,1726.31"/>
    <poly id="179731506#1" type="sport.tennis" color="79,230,125" fill="1" layer="-2.00" shape="5665.00,1726.31 5676.91,1706.65 5687.18,1712.81 5675.26,1732.47 5665.00,1726.31"/>
    <poly id="179731509" type="amenity.swimming_pool" color="237,199,199" fill="1" layer="-1.00" shape="5512.24,1468.91 5524.81,1447.38 5535.62,1453.64 5523.06,1475.16 5512.24,1468.91"/>
    <poly id="179731509#1" type="sport.swimming" color="79,230,125" fill="1" layer="-2.00" shape="5512.24,1468.91 5524.81,1447.38 5535.62,1453.64 5523.06,1475.16 5512.24,1468.91"/>
    <poly id="179731514" type="amenity.swimming_pool" color="237,199,199" fill="1" layer="-1.00" shape="5722.69,1668.93 5735.90,1647.77 5748.38,1655.47 5735.18,1676.64 5722.69,1668.93"/>
    <poly id="179731514#1" type="sport.swimming" color="79,230,125" fill="1" layer="-2.00" shape="5722.69,1668.93 5735.90,1647.77 5748.38,1655.47 5735.18,1676.64 5722.69,1668.93"/>
    <poly id="179731517" type="amenity.swimming_pool" color="237,199,199" fill="1" layer="-1.00" shape="5710.74,1692.03 5718.35,1677.83 5729.83,1683.93 5722.21,1698.11 5710.74,1692.03"/>
    <poly id="179731517#1" type="sport.swimming" color="79,230,125" fill="1" layer="-2.00" shape="5710.74,1692.03 5718.35,1677.83 5729.83,1683.93 5722.21,1698.11 5710.74,1692.03"/>
    <poly id="179731518" type="amenity.swimming_pool" color="237,199,199" fill="1" layer="-1.00" shape="5685.02,1676.03 5710.46,1633.58 5727.97,1643.97 5702.53,1686.41 5685.02,1676.03"/>
    <poly id="179731518#1" type="sport.swimming" color="79,230,125" fill="1" layer="-2.00" shape="5685.02,1676.03 5710.46,1633.58 5727.97,1643.97 5702.53,1686.41 5685.02,1676.03"/>
    <poly id="179731519" type="amenity.swimming_pool" color="237,199,199" fill="1" layer="-1.00" shape="5752.24,1658.46 5755.73,1653.53 5758.92,1655.77 5755.42,1660.70 5752.24,1658.46"/>
    <poly id="179731519#1" type="sport.swimming" color="79,230,125" fill="1" layer="-2.00" shape="5752.24,1658.46 5755.73,1653.53 5758.92,1655.77 5755.42,1660.70 5752.24,1658.46"/>
    <poly id="179731521" type="amenity.swimming_pool" color="237,199,199" fill="1" layer="-1.00" shape="5717.33,1624.16 5727.59,1606.71 5770.49,1631.67 5760.23,1649.12 5717.33,1624.16"/>
    <poly id="179731521#1" type="sport.swimming" color="79,230,125" fill="1" layer="-2.00" shape="5717.33,1624.16 5727.59,1606.71 5770.49,1631.67 5760.23,1649.12 5717.33,1624.16"/>
    <poly id="179731522" type="leisure.pitch" color="207,245,201" fill="1" layer="-2.00" shape="5677.06,1733.52 5688.30,1713.54 5697.22,1718.51 5686.00,1738.49 5677.06,1733.52"/>
    <poly id="179731522#1" type="sport.tennis" color="79,230,125" fill="1" layer="-2.00" shape="5677.06,1733.52 5688.30,1713.54 5697.22,1718.51 5686.00,1738.49 5677.06,1733.52"/>
    <poly id="179731523" type="natural.water" color="181,209,209" fill="1" layer="-4.00" shape="5535.49,1330.34 5538.89,1322.46 5544.14,1316.94 5546.76,1313.53 5548.86,1309.85 5553.58,1304.59 5558.03,1294.88 5577.80,1300.31 5575.20,1310.80 5570.99,1311.87 5567.66,1314.13 5565.09,1318.89 5565.51,1324.46 5563.41,1329.97 5556.06,1334.99 5553.44,1339.18 5551.34,1342.86 5535.49,1330.34"/>
    <poly id="179731530" type="amenity.swimming_pool" color="237,199,199" fill="1" layer="-1.00" shape="5485.15,1473.60 5463.31,1479.18 5451.55,1429.95 5473.39,1424.90 5485.15,1473.60"/>
    <poly id="179731530#1" type="sport.swimming" color="79,230,125" fill="1" layer="-2.00" shape="5485.15,1473.60 5463.31,1479.18 5451.55,1429.95 5473.39,1424.90 5485.15,1473.60"/>
    <poly id="179731567" type="leisure.pitch" color="207,245,201" fill="1" layer="-2.00" shape="5487.73,1509.46 5495.22,1490.08 5487.57,1487.15 5480.08,1506.53 5487.73,1509.46"/>
    <poly id="179731567#1" type="sport.tennis" color="79,230,125" fill="1" layer="-2.00" shape="5487.73,1509.46 5495.22,1490.08 5487.57,1487.15 5480.08,1506.53 5487.73,1509.46"/>
    <poly id="179731568" type="leisure.pitch" color="207,245,201" fill="1" layer="-2.00" shape="5502.87,1512.45 5509.80,1491.56 5501.14,1488.72 5494.22,1509.62 5502.87,1512.45"/>
    <poly id="179731568#1" type="sport.tennis" color="79,230,125" fill="1" layer="-2.00" shape="5502.87,1512.45 5509.80,1491.56 5501.14,1488.72 5494.22,1509.62 5502.87,1512.45"/>
    <poly id="179731569" type="leisure.pitch" color="207,245,201" fill="1" layer="-2.00" shape="5524.01,1522.11 5531.53,1501.39 5522.05,1497.97 5514.52,1518.71 5524.01,1522.11"/>
    <poly id="179731569#1" type="sport.tennis" color="79,230,125" fill="1" layer="-2.00" shape="5524.01,1522.11 5531.53,1501.39 5522.05,1497.97 5514.52,1518.71 5524.01,1522.11"/>
    <poly id="179731570" type="leisure.pitch" color="207,245,201" fill="1" layer="-2.00" shape="5529.36,1523.61 5536.22,1503.26 5546.08,1506.55 5539.23,1526.91 5529.36,1523.61"/>
    <poly id="179731570#1" type="sport.tennis" color="79,230,125" fill="1" layer="-2.00" shape="5529.36,1523.61 5536.22,1503.26 5546.08,1506.55 5539.23,1526.91 5529.36,1523.61"/>
    <poly id="179731761" type="leisure.playground" color="207,245,201" fill="1" layer="-2.00" shape="5545.26,1378.14 5551.93,1365.35 5572.31,1375.88 5565.63,1388.67 5545.26,1378.14"/>
    <poly id="180757177" type="man_made.pier" color="255,230,230" fill="0" layer="-1.00" shape="5880.44,1833.78 5921.55,1836.78"/>
    <poly id="180757178" type="man_made.pier" color="255,230,230" fill="0" layer="-1.00" shape="5927.06,1755.00 5891.75,1753.55"/>
    <poly id="180757179" type="man_made.pier" color="255,230,230" fill="0" layer="-1.00" shape="5698.61,1995.50 5681.16,2024.48"/>
    <poly id="180757180" type="man_made.pier" color="255,230,230" fill="0" layer="-1.00" shape="5898.51,1725.75 5928.49,1728.34"/>
    <poly id="180757181" type="man_made.pier" color="255,230,230" fill="0" layer="-1.00" shape="5910.91,2110.40 5909.57,2152.73 5908.70,2179.24"/>
    <poly id="180757182" type="man_made.pier" color="255,230,230" fill="0" layer="-1.00" shape="5858.17,2094.33 5870.70,2061.80"/>
    <poly id="180757184" type="man_made.pier" color="255,230,230" fill="0" layer="-1.00" shape="5772.86,2254.97 5759.43,2331.54"/>
    <poly id="180757185" type="man_made.pier" color="255,230,230" fill="0" layer="-1.00" shape="5865.17,1834.36 5806.02,1797.11"/>
    <poly id="180757186" type="man_made.pier" color="255,230,230" fill="0" layer="-1.00" shape="6067.45,1526.00 5988.68,1520.74"/>
    <poly id="180757187" type="man_made.pier" color="255,230,230" fill="0" layer="-1.00" shape="5870.35,1810.23 5819.07,1776.54"/>
    <poly id="180757189" type="man_made.pier" color="255,230,230" fill="0" layer="-1.00" shape="5657.62,2102.52 5636.64,2132.83"/>
    <poly id="180757190" type="man_made.pier" color="255,230,230" fill="0" layer="-1.00" shape="5923.24,1809.81 5882.46,1807.30"/>
    <poly id="180757191" type="man_made.pier" color="255,230,230" fill="0" layer="-1.00" shape="5640.06,2237.11 5604.75,2234.08"/>
    <poly id="180757192" type="man_made.pier" color="255,230,230" fill="0" layer="-1.00" shape="5888.69,1780.30 5925.28,1782.02"/>