<?xml version="1.0" encoding="UTF-8"?>

<configuration xmlns:xsi="http://www.w3.org/2001/XMLSchema-instance" xsi:noNamespaceSchemaLocation="http://sumo.dlr.de/xsd/sumoConfiguration.xsd">

    <input>
        <net-file value="osm.net.xml"/>
        <additional-files value="pois.add.xml"/>
    </input>

    <gui_only>
        <gui-settings-file value="showTraces.view.xml"/>
    </gui_only>

</configuration>
