<?xml version="1.0"?>
<!-- generated on 2015-09-10 12:48:01.234602 by $Id: route2trips.py 18237 2015-04-20 10:43:52Z namdre $ -->
<trips>
    <vType vClass="passenger" id="passenger"/>
    <trip id="veh0" depart="0.00" departLane="best" from="30567551#2" to="-180135573#2" type="passenger"/>
    <trip id="veh1" depart="0.66" departLane="best" from="324752295#3" to="324751729#3" type="passenger"/>
    <trip id="veh2" depart="1.32" departLane="best" from="37383983" to="-290618571" type="passenger"/>
    <trip id="veh3" depart="1.98" departLane="best" from="194828057#0" to="-180762422#0" type="passenger"/>
    <trip id="veh4" depart="2.64" departLane="best" from="156437791#3" to="30416841#3" type="passenger"/>
    <trip id="veh5" depart="3.30" departLane="best" from="-180878324" to="171751484#2" type="passenger"/>
    <trip id="veh6" depart="3.96" departLane="best" from="30598875#1" to="30418072#6" type="passenger"/>
    <trip id="veh7" depart="4.61" departLane="best" from="159554244#0" to="30534063#5" type="passenger"/>
    <trip id="veh8" depart="5.27" departLane="best" from="37174474#2" to="-169017784#1" type="passenger"/>
    <trip id="veh9" depart="5.93" departLane="best" from="37164516#1" to="324751767#2" type="passenger"/>
    <trip id="veh10" depart="6.59" departLane="best" from="177338966" to="-41672012#1" type="passenger"/>
    <trip id="veh11" depart="7.25" departLane="best" from="38923216#1" to="182592122#1" type="passenger"/>
    <trip id="veh12" depart="7.91" departLane="best" from="-279549605" to="-30567637#1" type="passenger"/>
    <trip id="veh13" depart="8.57" departLane="best" from="37180741#0" to="30598581#0" type="passenger"/>
    <trip id="veh14" depart="9.23" departLane="best" from="37174473#0" to="324994581" type="passenger"/>
    <trip id="veh16" depart="10.55" departLane="best" from="182007936#0" to="304384082#11" type="passenger"/>
    <trip id="veh17" depart="11.21" departLane="best" from="37180463#0" to="30598985#7" type="passenger"/>
    <trip id="veh18" depart="11.87" departLane="best" from="37180988#0" to="30533752#4" type="passenger"/>
    <trip id="veh19" depart="12.52" departLane="best" from="324241987" to="-194799746" type="passenger"/>
    <trip id="veh21" depart="13.84" departLane="best" from="-268307751" to="175999158#1" type="passenger"/>
    <trip id="veh22" depart="14.50" departLane="best" from="-30533575#2" to="177308106#0" type="passenger"/>
    <trip id="veh23" depart="15.16" departLane="best" from="30564973#5" to="194799786#2" type="passenger"/>
    <trip id="veh24" depart="15.82" departLane="best" from="181961188#3" to="175790472#2" type="passenger"/>
    <trip id="veh25" depart="16.48" departLane="best" from="175793372" to="38060303#0" type="passenger"/>
    <trip id="veh26" depart="17.14" departLane="best" from="30598837#0" to="30598875#1" type="passenger"/>
    <trip id="veh27" depart="17.80" departLane="best" from="-37347752" to="324994580#1" type="passenger"/>
    <trip id="veh28" depart="18.46" departLane="best" from="-37180733#2" to="205013618#5" type="passenger"/>
    <trip id="veh29" depart="19.12" departLane="best" from="56026350#3" to="30919063#6" type="passenger"/>
    <trip id="veh30" depart="19.78" departLane="best" from="30417206#1" to="324751745" type="passenger"/>
    <trip id="veh31" depart="20.43" departLane="best" from="37180733#2" to="335278790" type="passenger"/>
    <trip id="veh32" depart="21.09" departLane="best" from="169051254#1" to="-180878327" type="passenger"/>
    <trip id="veh33" depart="21.75" departLane="best" from="177308054#6" to="177308069#4" type="passenger"/>
    <trip id="veh34" depart="22.41" departLane="best" from="119447286#0" to="38060319" type="passenger"/>
    <trip id="veh35" depart="23.07" departLane="best" from="37350432#4" to="181961191#8" type="passenger"/>
    <trip id="veh36" depart="23.73" departLane="best" from="30598958#2" to="246519196#1" type="passenger"/>
    <trip id="veh39" depart="25.71" departLane="best" from="30417335#5" to="177308056#0" type="passenger"/>
    <trip id="veh40" depart="26.37" departLane="best" from="30418155#0" to="37501148" type="passenger"/>
    <trip id="veh41" depart="27.03" departLane="best" from="184162394#1" to="175999088#2" type="passenger"/>
    <trip id="veh43" depart="28.34" departLane="best" from="-279549604#0" to="-194799780#2" type="passenger"/>
    <trip id="veh44" depart="29.00" departLane="best" from="-30918556#1" to="30663264#2-AddedOnRampEdge" type="passenger"/>
    <trip id="veh46" depart="30.32" departLane="best" from="-266658733" to="207175682#0" type="passenger"/>
    <trip id="veh47" depart="30.98" departLane="best" from="69221704" to="30417705#6" type="passenger"/>
    <trip id="veh49" depart="32.30" departLane="best" from="-176908068#6" to="324986674" type="passenger"/>
    <trip id="veh50" depart="32.96" departLane="best" from="30951755#2" to="30417973#12" type="passenger"/>
    <trip id="veh51" depart="33.62" departLane="best" from="175793372" to="30951755#2" type="passenger"/>
    <trip id="veh52" depart="34.28" departLane="best" from="-324041277" to="268408771#1" type="passenger"/>
    <trip id="veh53" depart="34.94" departLane="best" from="246519196#0" to="38923009#9" type="passenger"/>
    <trip id="veh54" depart="35.60" departLane="best" from="37350432#2" to="177308057#1" type="passenger"/>
    <trip id="veh55" depart="36.26" departLane="best" from="290618571" to="169051254#1" type="passenger"/>
    <trip id="veh56" depart="36.91" departLane="best" from="176910663" to="30919063#3" type="passenger"/>
    <trip id="veh58" depart="38.23" departLane="best" from="324996451" to="30417973#9" type="passenger"/>
    <trip id="veh59" depart="38.89" departLane="best" from="33128043#0" to="30417755#4" type="passenger"/>
    <trip id="veh60" depart="39.55" departLane="best" from="-103992207#0" to="182015533#5" type="passenger"/>
    <trip id="veh61" depart="40.21" departLane="best" from="-180082654" to="38060284#1" type="passenger"/>
    <trip id="veh62" depart="40.87" departLane="best" from="37351132#3" to="37180896#0" type="passenger"/>
    <trip id="veh63" depart="41.53" departLane="best" from="176954470#0" to="-205013604#0" type="passenger"/>
    <trip id="veh64" depart="42.19" departLane="best" from="37351132#1" to="38062734" type="passenger"/>
    <trip id="veh65" depart="42.85" departLane="best" from="-279548233" to="29062013#6" type="passenger"/>
    <trip id="veh66" depart="43.51" departLane="best" from="-266666397" to="33128293#4" type="passenger"/>
    <trip id="veh67" depart="44.17" departLane="best" from="32644569#7" to="-37180301#0" type="passenger"/>
    <trip id="veh68" depart="44.82" departLane="best" from="268556970#2" to="304384073#1" type="passenger"/>
    <trip id="veh69" depart="45.48" departLane="best" from="175790484#1" to="37356160#0" type="passenger"/>
    <trip id="veh70" depart="46.14" departLane="best" from="194828057#3" to="175790476#1" type="passenger"/>
    <trip id="veh71" depart="46.80" departLane="best" from="30416808#1" to="324994582" type="passenger"/>
    <trip id="veh72" depart="47.46" departLane="best" from="-41672012#1" to="181961191#0" type="passenger"/>
    <trip id="veh74" depart="48.78" departLane="best" from="205403434#0" to="30416961#1" type="passenger"/>
    <trip id="veh75" depart="49.44" departLane="best" from="-324751735" to="175999108#2" type="passenger"/>
    <trip id="veh76" depart="50.10" departLane="best" from="177308120#0" to="30534063#2" type="passenger"/>
    <trip id="veh77" depart="50.76" departLane="best" from="169051258#1" to="175999092#3" type="passenger"/>
    <trip id="veh78" depart="51.42" departLane="best" from="-266666409#4" to="30801995#0" type="passenger"/>
    <trip id="veh79" depart="52.08" departLane="best" from="169051254#0" to="37720450#2" type="passenger"/>
    <trip id="veh80" depart="52.73" departLane="best" from="37180987#3" to="-266666376" type="passenger"/>
    <trip id="veh81" depart="53.39" departLane="best" from="171684933#0" to="324317005#0" type="passenger"/>
    <trip id="veh82" depart="54.05" departLane="best" from="142487124" to="-37180727#8" type="passenger"/>
    <trip id="veh83" depart="54.71" departLane="best" from="38060288#7" to="30533523#4" type="passenger"/>
    <trip id="veh84" depart="55.37" departLane="best" from="266666416#2" to="360580450" type="passenger"/>
    <trip id="veh85" depart="56.03" departLane="best" from="37174473#2" to="171698525#0" type="passenger"/>
    <trip id="veh86" depart="56.69" departLane="best" from="-290617981" to="268307751" type="passenger"/>
    <trip id="veh87" depart="57.35" departLane="best" from="200916232" to="290618576#1" type="passenger"/>
    <trip id="veh88" depart="58.01" departLane="best" from="324751761#7" to="324578414#0" type="passenger"/>
    <trip id="veh89" depart="58.67" departLane="best" from="4526387#6" to="-30598962" type="passenger"/>
    <trip id="veh90" depart="59.33" departLane="best" from="184165533#0" to="182857087#0" type="passenger"/>
    <trip id="veh91" depart="59.99" departLane="best" from="37180988#0" to="176910654#0" type="passenger"/>
    <trip id="veh93" depart="61.30" departLane="best" from="194828057#0" to="177308111" type="passenger"/>
    <trip id="veh94" depart="61.96" departLane="best" from="171747162" to="38060280#0" type="passenger"/>
    <trip id="veh95" depart="62.62" departLane="best" from="224716861#3" to="37350432#5" type="passenger"/>
    <trip id="veh96" depart="63.28" departLane="best" from="30416939#1" to="-194799786#0" type="passenger"/>
    <trip id="veh97" depart="63.94" departLane="best" from="69730786#0" to="37180981#1" type="passenger"/>
    <trip id="veh99" depart="65.26" departLane="best" from="37180894" to="146974253#0" type="passenger"/>
    <trip id="veh100" depart="65.92" departLane="best" from="285267650#1" to="175790489#2" type="passenger"/>
    <trip id="veh101" depart="66.58" departLane="best" from="184162398" to="-205013604#3" type="passenger"/>
    <trip id="veh102" depart="67.24" departLane="best" from="182007936#3" to="4526409#2" type="passenger"/>
    <trip id="veh103" depart="67.90" departLane="best" from="175790484#1" to="360580450" type="passenger"/>
    <trip id="veh104" depart="68.56" departLane="best" from="246519196#0" to="266666411#1" type="passenger"/>
    <trip id="veh105" depart="69.21" departLane="best" from="38923216#1" to="69221692#3" type="passenger"/>
    <trip id="veh106" depart="69.87" departLane="best" from="30416961#6" to="324985730#0" type="passenger"/>
    <trip id="veh107" depart="70.53" departLane="best" from="-360580450" to="180762419#1" type="passenger"/>
    <trip id="veh109" depart="71.85" departLane="best" from="30416841#4" to="33127320#1" type="passenger"/>
    <trip id="veh110" depart="72.51" departLane="best" from="-250563620#2" to="30533953#4" type="passenger"/>
    <trip id="veh111" depart="73.17" departLane="best" from="290618575" to="37347752" type="passenger"/>
    <trip id="veh112" depart="73.83" departLane="best" from="-37180301#0" to="38923503#3" type="passenger"/>
    <trip id="veh113" depart="74.49" departLane="best" from="-268330663" to="171677012#3" type="passenger"/>
    <trip id="veh114" depart="75.15" departLane="best" from="304384082#6" to="324579709#0" type="passenger"/>
    <trip id="veh115" depart="75.81" departLane="best" from="171674593#1" to="-324986673" type="passenger"/>
    <trip id="veh116" depart="76.47" departLane="best" from="37383970" to="176910631#0" type="passenger"/>
    <trip id="veh117" depart="77.12" departLane="best" from="304384082#4" to="30616901" type="passenger"/>
    <trip id="veh118" depart="77.78" departLane="best" from="194799789#0" to="30533953#2" type="passenger"/>
    <trip id="veh119" depart="78.44" departLane="best" from="29062013#8" to="38060293#1" type="passenger"/>
    <trip id="veh120" depart="79.10" departLane="best" from="-56026350#2" to="324985725" type="passenger"/>
    <trip id="veh122" depart="80.42" departLane="best" from="30801995#5" to="180762422#1" type="passenger"/>
    <trip id="veh123" depart="81.08" departLane="best" from="-266666413" to="290617980#0" type="passenger"/>
    <trip id="veh124" depart="81.74" departLane="best" from="69730786#0" to="69221692#5" type="passenger"/>
    <trip id="veh125" depart="82.40" departLane="best" from="-266666414" to="175790484#1" type="passenger"/>
    <trip id="veh126" depart="83.06" departLane="best" from="175790484#1" to="38060291#3" type="passenger"/>
    <trip id="veh127" depart="83.72" departLane="best" from="37352070#0" to="37376903" type="passenger"/>
    <trip id="veh128" depart="84.38" departLane="best" from="181961188#1" to="-56026350#0" type="passenger"/>
    <trip id="veh130" depart="85.69" departLane="best" from="30598948#2" to="-171697946" type="passenger"/>
    <trip id="veh131" depart="86.35" departLane="best" from="37174492#1" to="180762422#1" type="passenger"/>
    <trip id="veh132" depart="87.01" departLane="best" from="30616907#2" to="38060305#3" type="passenger"/>
    <trip id="veh133" depart="87.67" departLane="best" from="-324986671#1" to="-324752299" type="passenger"/>
    <trip id="veh134" depart="88.33" departLane="best" from="-30616901" to="304384082#14" type="passenger"/>
    <trip id="veh135" depart="88.99" departLane="best" from="175999092#3" to="30598584#0" type="passenger"/>
    <trip id="veh136" depart="89.65" departLane="best" from="324751739#2" to="171874660#1" type="passenger"/>
    <trip id="veh137" depart="90.31" departLane="best" from="29019892#6" to="37720450#2" type="passenger"/>
    <trip id="veh138" depart="90.97" departLane="best" from="37180739#0" to="-30533575#4" type="passenger"/>
    <trip id="veh139" depart="91.63" departLane="best" from="200916232" to="177308099#1" type="passenger"/>
    <trip id="veh140" depart="92.29" departLane="best" from="-159080707" to="33175457" type="passenger"/>
    <trip id="veh141" depart="92.95" departLane="best" from="30565122#2" to="177308054#7" type="passenger"/>
    <trip id="veh142" depart="93.60" departLane="best" from="324985134#0" to="304384082#10" type="passenger"/>
    <trip id="veh143" depart="94.26" departLane="best" from="202278346#0" to="-175999108#1" type="passenger"/>
    <trip id="veh144" depart="94.92" departLane="best" from="-266666416#2" to="37383977#1" type="passenger"/>
    <trip id="veh145" depart="95.58" departLane="best" from="37394817#5" to="30418155#1" type="passenger"/>
    <trip id="veh146" depart="96.24" departLane="best" from="37180725#7" to="30533904#3" type="passenger"/>
    <trip id="veh147" depart="96.90" departLane="best" from="-335278788#0" to="-336455025" type="passenger"/>
    <trip id="veh148" depart="97.56" departLane="best" from="176954470#6" to="37501151#1" type="passenger"/>
    <trip id="veh149" depart="98.22" departLane="best" from="33175456" to="37350432#3" type="passenger"/>
    <trip id="veh150" depart="98.88" departLane="best" from="37394610#0" to="175790472#4" type="passenger"/>
    <trip id="veh151" depart="99.54" departLane="best" from="171747162" to="-324041274" type="passenger"/>
    <trip id="veh152" depart="100.20" departLane="best" from="33128045#0" to="37393856#1" type="passenger"/>
    <trip id="veh153" depart="100.86" departLane="best" from="187567450#2" to="30616901" type="passenger"/>
    <trip id="veh154" depart="101.51" departLane="best" from="-360580450" to="38060288#1" type="passenger"/>
    <trip id="veh155" depart="102.17" departLane="best" from="37295846#5" to="40577572#2" type="passenger"/>
    <trip id="veh156" depart="102.83" departLane="best" from="37174481#1" to="37376908" type="passenger"/>
    <trip id="veh157" depart="103.49" departLane="best" from="-180762422#1" to="32644569#6" type="passenger"/>
    <trip id="veh158" depart="104.15" departLane="best" from="177308102#0" to="38060288#4" type="passenger"/>
    <trip id="veh159" depart="104.81" departLane="best" from="34878500#1" to="37351132#0" type="passenger"/>
    <trip id="veh160" depart="105.47" departLane="best" from="33128295" to="-324579709#0" type="passenger"/>
    <trip id="veh162" depart="106.79" departLane="best" from="169013928#0" to="37180725#5" type="passenger"/>
    <trip id="veh163" depart="107.45" departLane="best" from="265745120#1" to="181737750#5" type="passenger"/>
    <trip id="veh164" depart="108.11" departLane="best" from="33175453#2" to="175999132#0" type="passenger"/>
    <trip id="veh165" depart="108.77" departLane="best" from="-180762421" to="171698588#2" type="passenger"/>
    <trip id="veh166" depart="109.42" departLane="best" from="177308080#7" to="37351132#1" type="passenger"/>
    <trip id="veh167" depart="110.08" departLane="best" from="30567637#0" to="24684016#6" type="passenger"/>
    <trip id="veh168" depart="110.74" departLane="best" from="4526354#6" to="30417973#10" type="passenger"/>
    <trip id="veh169" depart="111.40" departLane="best" from="38060296#2" to="-324752299" type="passenger"/>
    <trip id="veh171" depart="112.72" departLane="best" from="38923503#3" to="177308060#3" type="passenger"/>
    <trip id="veh172" depart="113.38" departLane="best" from="-30616970" to="268408771#1" type="passenger"/>
    <trip id="veh173" depart="114.04" departLane="best" from="324751761#5" to="181961191#4" type="passenger"/>
    <trip id="veh174" depart="114.70" departLane="best" from="30530322#3" to="30416921#4" type="passenger"/>
    <trip id="veh175" depart="115.36" departLane="best" from="182015538#0" to="30533752#2" type="passenger"/>
    <trip id="veh176" depart="116.02" departLane="best" from="171874524#0" to="324985134#0" type="passenger"/>
    <trip id="veh178" depart="117.33" departLane="best" from="30416800#1" to="324986671#0" type="passenger"/>
    <trip id="veh179" depart="117.99" departLane="best" from="324985137" to="324317862#0" type="passenger"/>
    <trip id="veh180" depart="118.65" departLane="best" from="181737751#0" to="-266666374#0" type="passenger"/>
    <trip id="veh181" depart="119.31" departLane="best" from="30616910#1" to="182175770#1" type="passenger"/>
    <trip id="veh182" depart="119.97" departLane="best" from="177308054#1" to="37342226#5" type="passenger"/>
    <trip id="veh183" depart="120.63" departLane="best" from="324751743" to="180762422#1" type="passenger"/>
    <trip id="veh184" depart="121.29" departLane="best" from="177068340" to="265745121#2" type="passenger"/>
    <trip id="veh185" depart="121.95" departLane="best" from="184165533#0" to="180762417#0" type="passenger"/>
    <trip id="veh186" depart="122.61" departLane="best" from="-324751770#0" to="266666397" type="passenger"/>
    <trip id="veh187" depart="123.27" departLane="best" from="38060298" to="324751729#4" type="passenger"/>
    <trip id="veh188" depart="123.93" departLane="best" from="37394817#2" to="30598983#0" type="passenger"/>
    <trip id="veh189" depart="124.59" departLane="best" from="176910667#11" to="30418160#1" type="passenger"/>
    <trip id="veh190" depart="125.25" departLane="best" from="-103992207#0" to="177573963" type="passenger"/>
    <trip id="veh191" depart="125.90" departLane="best" from="205013604#3" to="30533820#3" type="passenger"/>
    <trip id="veh192" depart="126.56" departLane="best" from="30598950" to="290618573#2" type="passenger"/>
    <trip id="veh193" depart="127.22" departLane="best" from="221475378" to="175790489#2" type="passenger"/>
    <trip id="veh194" depart="127.88" departLane="best" from="266666416#3" to="37503191" type="passenger"/>
    <trip id="veh196" depart="129.20" departLane="best" from="-270375655" to="30416939#5" type="passenger"/>
    <trip id="veh197" depart="129.86" departLane="best" from="30534383#1" to="182175783" type="passenger"/>
    <trip id="veh198" depart="130.52" departLane="best" from="37174492#5" to="33128045#0" type="passenger"/>
    <trip id="veh201" depart="132.50" departLane="best" from="171698588#0" to="290619181#2" type="passenger"/>
    <trip id="veh202" depart="133.16" departLane="best" from="37180895#0" to="-266666409#3" type="passenger"/>
    <trip id="veh203" depart="133.81" departLane="best" from="194799781#0" to="30801681#3" type="passenger"/>
    <trip id="veh205" depart="135.13" departLane="best" from="290617321#1" to="176908068#6" type="passenger"/>
    <trip id="veh206" depart="135.79" departLane="best" from="30598958#4" to="-159554254#0" type="passenger"/>
    <trip id="veh207" depart="136.45" departLane="best" from="324985730#3" to="33175453#3" type="passenger"/>
    <trip id="veh208" depart="137.11" departLane="best" from="-30616901" to="266666414" type="passenger"/>
    <trip id="veh209" depart="137.77" departLane="best" from="-37376903" to="38923311#3" type="passenger"/>
    <trip id="veh210" depart="138.43" departLane="best" from="29062008#8" to="-194799786#0" type="passenger"/>
    <trip id="veh211" depart="139.09" departLane="best" from="171723884" to="37342226#5" type="passenger"/>
    <trip id="veh212" depart="139.75" departLane="best" from="24684016#2" to="37180293#1" type="passenger"/>
    <trip id="veh214" depart="141.07" departLane="best" from="304384082#9" to="38923009#2" type="passenger"/>
    <trip id="veh215" depart="141.72" departLane="best" from="37383977#1" to="30598948#1" type="passenger"/>
    <trip id="veh216" depart="142.38" departLane="best" from="324751741#4" to="30416841#1" type="passenger"/>
    <trip id="veh217" depart="143.04" departLane="best" from="37180463#3" to="30418160#1" type="passenger"/>
    <trip id="veh218" depart="143.70" departLane="best" from="37394607#1" to="326910419#5" type="passenger"/>
    <trip id="veh219" depart="144.36" departLane="best" from="268556970#0" to="177308051" type="passenger"/>
    <trip id="veh220" depart="145.02" departLane="best" from="171699103#1" to="30802013#3-AddedOnRampEdge" type="passenger"/>
    <trip id="veh221" depart="145.68" departLane="best" from="32644569#7" to="30417206#3" type="passenger"/>
    <trip id="veh222" depart="146.34" departLane="best" from="30534013#0" to="177308094#0" type="passenger"/>
    <trip id="veh223" depart="147.00" departLane="best" from="-266670737" to="177338975" type="passenger"/>
    <trip id="veh224" depart="147.66" departLane="best" from="175999092#0" to="182007938#0" type="passenger"/>
    <trip id="veh225" depart="148.32" departLane="best" from="30416834#0" to="-37180894" type="passenger"/>
    <trip id="veh226" depart="148.98" departLane="best" from="169051263" to="324751761#8" type="passenger"/>
    <trip id="veh227" depart="149.63" departLane="best" from="324317005#0" to="-250563617#1" type="passenger"/>
    <trip id="veh229" depart="150.95" departLane="best" from="194799782#2" to="172022403#0" type="passenger"/>
    <trip id="veh230" depart="151.61" departLane="best" from="194799789#2" to="37503198#1" type="passenger"/>
    <trip id="veh231" depart="152.27" departLane="best" from="30418072#4" to="324751765" type="passenger"/>
    <trip id="veh232" depart="152.93" departLane="best" from="37180984#1" to="33128564#2-AddedOffRampEdge" type="passenger"/>
    <trip id="veh233" depart="153.59" departLane="best" from="182007938#2" to="-159554254#1" type="passenger"/>
    <trip id="veh234" depart="154.25" departLane="best" from="180762419#0" to="33128045#7" type="passenger"/>
    <trip id="veh235" depart="154.91" departLane="best" from="37180980#1" to="38923009#9" type="passenger"/>
    <trip id="veh236" depart="155.57" departLane="best" from="194799789#0" to="33127320#0" type="passenger"/>
    <trip id="veh237" depart="156.23" departLane="best" from="30416913#6" to="30598482#4" type="passenger"/>
    <trip id="veh238" depart="156.89" departLane="best" from="159554244#0" to="175999088#2" type="passenger"/>
    <trip id="veh239" depart="157.55" departLane="best" from="205013618#2" to="-180762422#0" type="passenger"/>
    <trip id="veh240" depart="158.20" departLane="best" from="177308119#0" to="324751731#3" type="passenger"/>
    <trip id="veh242" depart="159.52" departLane="best" from="266666376" to="-34878500#0" type="passenger"/>
    <trip id="veh243" depart="160.18" departLane="best" from="30533904#4" to="-180135576" type="passenger"/>
    <trip id="veh244" depart="160.84" departLane="best" from="182857082#1" to="30530306#5" type="passenger"/>
    <trip id="veh245" depart="161.50" departLane="best" from="-181961195#1" to="30979908#2" type="passenger"/>
    <trip id="veh246" depart="162.16" departLane="best" from="-324991230" to="290617982#3" type="passenger"/>
    <trip id="veh247" depart="162.82" departLane="best" from="-245135214" to="205013618#4-AddedOnRampEdge" type="passenger"/>
    <trip id="veh248" depart="163.48" departLane="best" from="119447286#1-AddedOnRampEdge" to="182015538#0" type="passenger"/>
    <trip id="veh249" depart="164.14" departLane="best" from="324996450#1" to="205013618#4-AddedOnRampEdge" type="passenger"/>
    <trip id="veh250" depart="164.80" departLane="best" from="324986671#1" to="37180896#1" type="passenger"/>
    <trip id="veh251" depart="165.46" departLane="best" from="171770195#0" to="-279548234" type="passenger"/>
    <trip id="veh252" depart="166.11" departLane="best" from="-180082654" to="30418000#0" type="passenger"/>
    <trip id="veh253" depart="166.77" departLane="best" from="99005064" to="184796749#7" type="passenger"/>
    <trip id="veh254" depart="167.43" departLane="best" from="30598875#1" to="34878500#2" type="passenger"/>
    <trip id="veh255" depart="168.09" departLane="best" from="30598933#3" to="33128045#8" type="passenger"/>
    <trip id="veh257" depart="169.41" departLane="best" from="-324751765" to="324317005#1" type="passenger"/>
    <trip id="veh258" depart="170.07" departLane="best" from="30417705#2" to="175999074#1" type="passenger"/>
    <trip id="veh260" depart="171.39" departLane="best" from="-37180896#2" to="30598837#0" type="passenger"/>
    <trip id="veh261" depart="172.05" departLane="best" from="324985724" to="-324751770#0" type="passenger"/>
    <trip id="veh263" depart="173.37" departLane="best" from="-30616970" to="-180135576" type="passenger"/>
    <trip id="veh264" depart="174.02" departLane="best" from="177308050" to="324751729#4" type="passenger"/>
    <trip id="veh265" depart="174.68" departLane="best" from="38923216#4" to="246519215" type="passenger"/>
    <trip id="veh266" depart="175.34" departLane="best" from="324751731#3" to="-266666417" type="passenger"/>
    <trip id="veh267" depart="176.00" departLane="best" from="310772654#0" to="30663264#2-AddedOnRampEdge" type="passenger"/>
    <trip id="veh269" depart="177.32" departLane="best" from="37180896#0" to="30567637#0" type="passenger"/>
    <trip id="veh270" depart="177.98" departLane="best" from="-324751735" to="4526387#5" type="passenger"/>
    <trip id="veh271" depart="178.64" departLane="best" from="33128048#0" to="184796749#2" type="passenger"/>
    <trip id="veh272" depart="179.30" departLane="best" from="202278347#0" to="205013604#0" type="passenger"/>
    <trip id="veh273" depart="179.96" departLane="best" from="290618576#7" to="182857090#1" type="passenger"/>
    <trip id="veh274" depart="180.62" departLane="best" from="37180895#0" to="37180727#4" type="passenger"/>
    <trip id="veh275" depart="181.28" departLane="best" from="-30567637#3" to="38923503#3" type="passenger"/>
    <trip id="veh276" depart="181.94" departLane="best" from="30564973#4" to="37180736#2" type="passenger"/>
    <trip id="veh277" depart="182.59" departLane="best" from="324317859" to="268556970#2" type="passenger"/>
    <trip id="veh279" depart="183.91" departLane="best" from="175999074#1" to="37180453" type="passenger"/>
    <trip id="veh280" depart="184.57" departLane="best" from="30416800#0" to="29062013#11" type="passenger"/>
    <trip id="veh281" depart="185.23" departLane="best" from="205013618#1" to="324996450#2" type="passenger"/>
    <trip id="veh282" depart="185.89" departLane="best" from="175793384#1" to="37343420#2" type="passenger"/>
    <trip id="veh283" depart="186.55" departLane="best" from="37180547#0" to="-290618571" type="passenger"/>
    <trip id="veh284" depart="187.21" departLane="best" from="37352070#2" to="176908068#6" type="passenger"/>
    <trip id="veh285" depart="187.87" departLane="best" from="266666359" to="30598933#2" type="passenger"/>
    <trip id="veh286" depart="188.53" departLane="best" from="182007936#3" to="-180762422#0" type="passenger"/>
    <trip id="veh287" depart="189.19" departLane="best" from="37180896#2" to="170268763" type="passenger"/>
    <trip id="veh288" depart="189.85" departLane="best" from="119447331" to="37174492#0" type="passenger"/>
    <trip id="veh289" depart="190.50" departLane="best" from="177338972#1" to="37376904" type="passenger"/>
    <trip id="veh290" depart="191.16" departLane="best" from="324043269#4" to="177308099#0" type="passenger"/>
    <trip id="veh291" depart="191.82" departLane="best" from="-176908068#1" to="38922730#2" type="passenger"/>
    <trip id="veh293" depart="193.14" departLane="best" from="310772654#0" to="30993606#1" type="passenger"/>
    <trip id="veh294" depart="193.80" departLane="best" from="290404535#0" to="37174481#4" type="passenger"/>
    <trip id="veh295" depart="194.46" departLane="best" from="-279549605" to="175999097#3" type="passenger"/>
    <trip id="veh297" depart="195.78" departLane="best" from="30418072#0" to="290619178#0" type="passenger"/>
    <trip id="veh298" depart="196.44" departLane="best" from="30166961#7" to="266666416#0" type="passenger"/>
    <trip id="veh299" depart="197.10" departLane="best" from="324985722#0" to="182175772" type="passenger"/>
    <trip id="veh300" depart="197.76" departLane="best" from="324043272#2" to="177308080#0" type="passenger"/>
    <trip id="veh301" depart="198.41" departLane="best" from="171751484#3" to="-324994572" type="passenger"/>
    <trip id="veh303" depart="199.73" departLane="best" from="30416743#4" to="33128389#2" type="passenger"/>
    <trip id="veh304" depart="200.39" departLane="best" from="-38044985#3" to="175793384#1" type="passenger"/>