<?xml version="1.0" encoding="UTF-8"?>

<!-- generated on Thu Sep 10 12:48:05 2015 by SUMO duarouter Version dev-SVN-r18820
<?xml version="1.0" encoding="UTF-8"?>

<configuration xmlns:xsi="http://www.w3.org/2001/XMLSchema-instance" xsi:noNamespaceSchemaLocation="http://sumo.dlr.de/xsd/duarouterConfiguration.xsd">

    <input>
        <net-file value="osm.net.xml"/>
        <trip-files value="osm.pedestrian.trips.xml"/>
    </input>

    <output>
        <output-file value="osm.pedestrian.rou.xml"/>
    </output>

    <processing>
        <ignore-errors value="true"/>
    </processing>

    <time>
        <begin value="0"/>
        <end value="3600.0"/>
    </time>

    <report>
        <no-step-log value="true"/>
    </report>

</configuration>
-->

<routes xmlns:xsi="http://www.w3.org/2001/XMLSchema-instance" xsi:noNamespaceSchemaLocation="http://sumo.dlr.de/xsd/routes_file.xsd">
    <person id="ped1" depart="0.85">
        <walk edges="37502324#22+37722642#4 37502324#21+37722642#3 37502324#20+37722642#2 37347753#1+37722642#1 37347753#0 37347754#11 37347754#10 37347754#8 37347754#7 37347754#6 37347754#5 37347754#4 37347754#3 37347754#2 37347754#1 37347754#0 37356159 -324579709#0"/>
    </person>
    <person id="ped3" depart="2.54">
        <walk edges="-182175773 37720452#0 37720452#1 37720452#2 176910667#13 176910667#12 175790484#1 175790476#1 346060457#1 180762424#1 30529782 181737755 -176908068#3 -175999108#0 -175999108#1 37413765 -324317862#5 30418160#0 30418160#1 175999158#0 175999158#1 175999158#2 175999151#1 175999151#0 175999110"/>
    </person>
    <person id="ped4" depart="3.39">
        <walk edges="176910654#1 184796749#4 184796749#3 184796749#2 184796749#1 184796749#0 37720450#2 37720450#1 37720452#1 37720452#2 -176910667#13 -176910667#12 -176910667#11 -176910667#10 -176910667#9 -176910667#8 -176910667#7 -176910667#6 -176910667#5 -176910667#4 -176910667#2 -176910667#1 30801681#0 30801681#1 30801681#2 30801681#3 175790472#11 324752522 324752524 324752523 37174481#0 37174481#1 37174481#2 37174481#3 37174481#4 30663332 324752778#0 324752778#1 324752778#2 30565122#2 30565122#1"/>
    </person>
    <person id="ped5" depart="4.23">
        <walk edges="194799782#0 194799770 37350428#0 37174488#5 194799740#2 -194799752 194799740#0 37174488#1 37174488#0 24684016#2 24684016#1 176910651#2 176910651#0 -176910667#0 -176910667#1 -176910667#2 37180897#0 37180897#1 37180897#2 37180897#3 181737751#0 181737756 32761348#3 32761348#4 32761348#5 32761363 176908068#5 -176908068#4 175999108#0 175999108#1 37413765 324317862#3 169017788"/>
    </person>
    <person id="ped6" depart="5.08">
        <walk edges="37350440 29019892#5 29019892#4 29019892#3 29019892#2 29019892#1 182007938#8 29062014#8 29062014#7 29062014#6 29062014#5 29062014#4 29062014#3 29062014#2 29062014#1 29062014#0 38044989 172020418 30598847#0 30598847#1 30598584#2 30598938#0"/>
    </person>
    <person id="ped7" depart="5.92">
        <walk edges="37356409 30616907#0 180762428#3 180762428#2 180762428#0 37180897#3 181737751#1 175790472#5 175790472#6 175790472#9 175790472#10 175790472#11 -324752522 -324752524 -324752523 39958266#3 39958266#2 39958266#1 261551754#0 261551756 261551754#2 -181961195#1 179073822 179073821 -41672012#2 41672013 30533953#2 30533953#1"/>
    </person>
    <person id="ped8" depart="6.77">
        <walk edges="32644646#3 169013928#3 169013928#4 169013928#5 175793377 180242033#0 180242033#1 180242033#2 180242033#3 180762420 30979840#1 -180762419#1 180762419#0 180762424#2 180762424#1 30529782 30801714#1 30801714#0 32761363 -176908068#5 30529824#1 -245135211"/>
    </person>
    <person id="ped9" depart="7.62">
        <walk edges="176910667#8 176910667#7 30616910#0 30616910#1 31545447#1 175790472#3 181737756"/>
    </person>
    <person id="ped10" depart="8.46">
        <walk edges="-30918556#1 -324752299 324751748#7 324751748#6 324751748#4 324751748#3 324751748#2 324751748#1 324751748#0 324751746 324751745 324751744 324751743 180241128 181961191#11 177308051"/>
    </person>
    <person id="ped11" depart="9.31">
        <walk edges="-325001081 159554254#0 34878531 31538730#1 31538730#0 175999131#1 175999106#0 175999106#1 176906141#6 324751731#1 324751731#2 324751731#3 -30529779#6 -324317862#0 -324317862#1 -324317862#2 -324317862#3 37413765 -175999108#1 -175999108#0 -176908068#3 181737755 30529782 180762424#1 180762424#2 180762419#0"/>
    </person>
    <person id="ped12" depart="10.16">
        <walk edges="324041274 324041273 324985134#1 324985134#0 38060327#1 324985140 324985137 -324985138 38060303#3 38060303#2 -38060303#1 37180981#0 30919063#3 172021657#3 172021657#2 172021657#1 38060288#2 38060288#1 37180984#3 37180984#2 37180984#1 37180984#0 304384082#4 304384082#3 37501151#3 37501151#2 29062014#8 182007938#8 188664139 29062005#1 29019833 224716862#0 224716862#1 224716862#2 224716862#3"/>
    </person>
    <person id="ped13" depart="11.00">
        <walk edges="237095112#2 237095112#3 237095112#4 237095112#5 30564973#5 37174480 39958266#1 261551754#0 261551756 261551754#2 -181961195#0 175999142 176906141#0 176906141#1 176906141#2 176906141#3"/>
    </person>
    <person id="ped14" depart="11.85">
        <walk edges="171684326 30530280#0 38060288#4 38060288#3 172021657#1 171684933#3 69221692#3 69221692#2 30919063#5 30919063#6 324991231 38060296#1 38060296#0 30598958#1 177338975 30417941#3 30417941#2 205013617#1 205013617#0 205013611#1 -205013607#0 -205013607#1 -205013607#2 266666395#1 324043272#2 324043272#1 324043270#3 324043270#2 250563620#2 -250563620#1 -250563620#0 250563617#1 250563619#1"/>
    </person>
    <person id="ped15" depart="12.70">
        <walk edges="30530306#1 30530306#2 38044977#1 29062014#3 29062014#2 29062014#1 29062014#0 38044989 172020418 30598847#0 30598847#1 30598584#2 30598584#1 30598584#0 304384082#16 304384082#17 202278346#0 202278346#2 324994580#0 324994579#0 265262094#0 265262094#1 -324985147#2 324985147#2"/>
    </person>
    <person id="ped16" depart="13.54">
        <walk edges="37350431#3 171874660#2 182173184#2 170268788#1 182173194#1 -324242032 290404537 290619180#0 290619180#1 290404533 290619178#0 290619178#1 37428724 37502324#11 37502324#12 37502324#13 37502324#14 37502324#15 37502324#16 37352279#2+37502324#17 37352279#3+37502324#18 37502324#19 37502324#20+37722642#2 37502324#21+37722642#3 37502324#22+37722642#4 37502324#23 37502324#24 37502324#25 37502324#26+37722640#3 37502324#27 37502324#28 37502324#29 37502324#30 37502324#31 37180450#1 37180450#2 37180450#3 37180450#4+37295857#2 37180450#5+37295857#3 37180450#6+37295857#4 37180450#7+37295857#5"/>
    </person>
    <person id="ped17" depart="14.39">
        <walk edges="176910672 184796749#6 184796749#5 184796749#4 184796749#3 184796749#2 184796749#1 184796749#0 37720450#2 37720450#1 37720452#1 37720452#2 -176910667#13 -176910667#12 -176910667#11 -176910667#10 -176910667#9 -176910667#8 -176910667#7 -176910667#6 -176910667#5 -176910667#4 -176910667#2 -176910667#1 -176910667#0 176910651#0 176910651#2 24684016#1 24684016#2 37174488#0 37174488#1 194799740#0 -194799752 194799740#2 -194799745"/>
    </person>
    <person id="ped18" depart="15.24">
        <walk edges="182175776 175999143#1 324751732 32761348#1 180762430 175790472#5 181737751#1 37180897#3 180762428#0 180762428#2 180762428#3 180762428#4 182015538#0 182015538#1 30979908#1 30979908#0 176910667#11 176910667#12 176910667#13 182015533#0 182015533#1 -179731505#1 180762427#1 180762423#1 180762423#2 179731529#4 179731529#3 179731529#2"/>
    </person>
    <person id="ped19" depart="16.08">
        <walk edges="37394816#0 30416841#6 30416841#5 30416841#4 30416841#3 30416841#2 30416841#1 30416841#0 182857084#2 182857084#1 182857084#0 30565218#1 30565218#0 324752779 37174481#5 37174481#4 37174481#3 37174481#2 37174481#1 37174481#0 324752523 324752524 324752522 175790472#11 30801681#3 30801681#2 30801681#1 30801681#0 -176910667#1 -176910667#2 -176910667#4 -176910667#5 -176910667#6 -176910667#7 -176910667#8 -176910667#9 -176910667#10 -176910667#11 -176910667#12 -176910667#13 37720452#2 37720452#1 37720452#0 -182175773 182175777 175793371 -182175774#0 -182175774#1 182175774#2"/>
    </person>
    <person id="ped20" depart="16.93">
        <walk edges="179731503#0 179731529#0 179731529#6 179731529#5 180762423#2 180762423#1 180762427#1 -179731505#1 182015533#1 182015533#0 176910667#13 176910667#12 176910667#11 176910667#10 176910667#9 176910667#8 176910667#7 176910667#6 176910667#5 176910667#4 176910667#2 176910667#1 30801681#0 30801681#1 30801681#2 30801681#3 175790472#11 324752522 324752524 324752523 37174481#0 37174481#1 37174481#2 37174481#3 37174481#4 37174481#5 324752779 30565218#0 30565218#1 182857084#0 182857084#1 177308080#4 177308080#5 177308080#6"/>
    </person>
    <person id="ped21" depart="17.77">
        <walk edges="30533350#0 30533350#1 30533350#2 30533350#3 37180547#0 37180547#1 37180547#2 324752299 324996450#4 324996450#3 184162399 37174474#3 37174474#2 37180301#1 324996451 101940018 -181961195#2 -181961195#1 261551754#2 261551756 261551754#0 39958266#1 39958266#2 39958266#3 -324752523 -324752524 -324752522 175790472#11 30801681#3 30801681#2 30801681#1 30801681#0 176910667#1 176910667#2 176910667#4 176910667#5 176910667#6 176910667#7 176910667#8 176910667#9 176910667#10 176910667#11 176910667#12 176910667#13 182015533#0 182015533#1 -179731505#1 180762427#1 180762423#1 180762425#0 179731491#0"/>
    </person>
    <person id="ped22" depart="18.62">
        <walk edges="30534258#0 37174492#5 30416841#4 30416841#5 30416841#6 37394817#0 37394817#1 37394817#2 37394817#3 37394817#4 37394817#5 37394817#6 37394817#7 37343410#0 37502324#7 37502324#6 37502324#5 37502324#4 37502324#3 37502324#2 29019951 224716862#3 224716862#2 224716862#1 224716862#0 29019833 29062005#0 290617982#5 290617982#4 290617982#3 37503194#1 37503194#0"/>
    </person>
    <person id="ped23" depart="19.47">
        <walk edges="-37180452 37347750#3 37347750#2 37347750#1 37295851 37295852#2 37295852#1 324751765 324751764 324751763#1 230844223#1 230844223#0 324751750 290618576#11 290618576#10 290618576#8 290618576#7 290618576#6 290618576#5 290618576#4 290618576#3 290618576#2 37174473#4 30993435#0 30993435#1 30993435#2 30993435#3"/>
    </person>
    <person id="ped24" depart="20.31">
        <walk edges="69221692#5 69221692#4 171684933#2 171684933#1 171684933#0 207176164 177338976 30417941#4"/>
    </person>
    <person id="ped25" depart="21.16">
        <walk edges="-176910667#10 -176910667#9 -176910667#8 -176910667#7 -176910667#6 -176910667#5 -176910667#4 -176910667#2 -176910667#1 30801681#0 30801681#1 30801681#2 30801681#3 175790472#11 -324752522 177308083 33127320#1 184165530 184165533#0 33175456 33175453#2 33175453#3 33175453#4 30534063#4 177308056#1 177308056#0 30533575#6 30533575#5 30533575#4 30533575#3 30533575#2 30533575#1 33128300 33128293#4 33128293#3"/>
    </person>
    <person id="ped26" depart="22.01">
        <walk edges="324985138 -38060303#3 30598985#0 30598985#1 30598985#3 30598985#4 30598985#5 30598985#6 30598985#7 30418035#4 30418035#5"/>
    </person>
    <person id="ped27" depart="22.85">
        <walk edges="290618570#0 290618571 -290618569 69221692#9 304384082#7 37180980#0 37180980#1 37180980#2 37180980#3 172021657#0 172021657#1 172021657#2 172021657#3 30919063#3 37180981#0 -38060303#1 38060303#2 38060303#3 -324985138 324985137 324985140 38060327#1 324985134#0 324985134#1 324041273 324041274 324041275 324041276 324041277 38922730#0"/>
    </person>
    <person id="ped28" depart="23.70">
        <walk edges="37394610#2 230844223#4 324751767#1 324751767#2 324751767#3 30534063#3 30534063#4 33175453#4 33175453#3 33175453#2 33175456 184165533#0 184165530 33127320#1 177308083 -324752522 175790472#11 30801681#3 30801681#2 30801681#1 30801681#0 176910667#1 176910667#2 176910667#4 176910667#5 176910667#6 176910667#7 176910667#8 176910667#9 176910667#10 176910667#11 176910667#12 176910667#13 182015533#0 182015533#1 -179731505#1 180762427#1 180762423#1 180762423#2 179731529#4 179731491#2"/>
    </person>
    <person id="ped29" depart="24.55">
        <walk edges="30416854#1 30993435#4 37180298#0 37394816#1 37394816#0 37394817#0 37394817#1 37394817#2 290619172#1 290619172#2 290404535#1 37348438#2 37348438#1 37348438#0 265760472#0 -324242032 182173194#1 182173194#0 37355823#2 171874524#2"/>
    </person>
    <person id="ped30" depart="25.39">
        <walk edges="38044977#1 30530306#2 30530306#1 30530306#0 290618568#0 29062013#1 29062013#0 29062005#1 29019833 224716862#0 224716862#1 224716862#2 224716862#3 29019951 37502324#2 37502324#3 37502324#4 37502324#5 37502324#6 37502324#7 37343410#1+37502324#8 37502324#9 37502324#10 37502324#11 37502324#12 37502324#13 180372099#1+38062739#2 180372099#0 37394167#3 37394167#2"/>
    </person>
    <person id="ped31" depart="26.24">
        <walk edges="37174488#5 194799740#2 -194799752 194799740#0 37174488#1 37174488#0 24684016#2 24684016#1 24684016#6 176910666 182015534#0 182015534#1 30801681#3 175790472#10 175790472#9 40892658 32761334 324751732 175999143#1 175999143#0 175999132#0 181961188#9 181961188#8 246519228#0 175999088#2 -30567637#1 -30567637#2 169015057#1 30418155#1"/>
    </person>
    <person id="ped32" depart="27.09">
        <walk edges="-103992207#0 -103992207#1 30801681#2 30801681#3 175790472#11 -324752522 177308083 33127320#1 184165530 184165533#0 33175456 33175453#2 33175453#3 33175453#4 30534063#5 30534063#6 30534063#7 184162395#0"/>
    </person>
    <person id="ped33" depart="27.93">
        <walk edges="-290619177 37394817#5 37394817#4 37394817#3 37394817#2 37394817#1 37394817#0 30416841#6 30416841#5 30416841#4 30416841#3 30416841#2 30416841#1 30416841#0 182857084#2 182857084#1 182857084#0 30565218#1 30565218#0 324752779 37174481#5 37174481#4"/>
    </person>
    <person id="ped34" depart="28.78">
        <walk edges="37174492#1 30416913#3 30416913#4 30416913#5 30416913#6 37350432#2 30993534#2 30993534#1 170268763 29019892#12 29019892#11 29019892#10 29019892#9 29019892#8 29019892#7 29019892#6 29019892#5 29019892#4 29019892#3 29019892#2 29019892#1 182007938#8 29062014#8 37501151#2 37501151#3 304384082#3 304384082#4 37180984#0 37180984#1 37180984#2 37180984#3 38060288#1 69221692#4 69221692#3 69221692#2 69221692#1 -38060303#0"/>
    </person>
    <person id="ped35" depart="29.62">
        <walk edges="29062010 182857087#2 30417787 29019892#7 29019892#6 29019892#5 29019892#4 29019853#1 224716862#0 29019833 29062005#0 290617982#5 290617982#4 290617982#3 290617982#2 290617982#1 290617982#0 29062008#10 29062008#9 29062008#8 29062008#7 29062008#6 29062008#5 29062008#3 29062008#2 29062008#1 304398987#1 304398987#0"/>
    </person>
    <person id="ped36" depart="30.47">
        <walk edges="179731503#1 179731504#2 186259172#0 180762425#1 180762423#1 180762427#1 -179731505#1 182015533#1 182015533#0 176910667#13 176910667#12 176910667#11 176910667#10 176910667#9 176910667#8 176910667#7 176910667#6 176910667#5 176910667#4 176910667#2 176910667#1 30801681#0 30801681#1 30801681#2 30801681#3 175790472#11 324752522 324752524 324752523 37174481#0 37174481#1 37174481#2 37174481#3 37174481#4 37174481#5 324752779 30565218#0 30565218#1 182857084#0 182857084#1 182857084#2 181961191#3 181961191#4 181961191#5 37180298#4 37180298#3 30416854#0 30416854#1 30416854#2 37394169#3"/>
    </person>
    <person id="ped37" depart="31.32">
        <walk edges="30418155#1 175999158#0 30418160#1 30418160#0 -324317862#5 37413765 -175999108#1 -175999108#0 -176908068#3 181737755 30529782 180762424#1 180762424#2 180762419#0 334204927"/>
    </person>
    <person id="ped38" depart="32.16">
        <walk edges="29019892#1 29019892#2 29019892#3 29019892#4 29019892#5 29019892#6 29019892#7 29019892#8 29019892#9 29019892#10 29019892#11 29019892#12 170268763 30993534#1 30993534#2 30416996 180328745#0 180328745#1 180328745#2 156437791#0 156437791#1 156437791#2 156437791#3 156437791#4 182007936#0 182007936#2 182007936#3 182007936#4 177308054#0 177308054#1 177308054#2 177308054#3 177308054#5 177308054#6 30417335#5"/>
    </person>
    <person id="ped39" depart="33.01">
        <walk edges="-37355824 -176910667#9 -176910667#8 -176910667#7 -176910667#6 176910667#5 176910667#4 176910667#2 176910667#1"/>
    </person>
    <person id="ped40" depart="33.86">
        <walk edges="194799779 194799770 177308060#1 30951755#3 30951755#2 224716861#2 224716861#0 324752778#4 324752778#3 324752778#2 324752778#1 324752778#0 30663332 37174481#4 37174481#3 37174481#2 37174481#1 30564973#4 30564973#5"/>
    </person>
    <person id="ped41" depart="34.70">
        <walk edges="176954460 101940018 -181961195#2 -181961195#1 261551754#2 261551756 261551754#0 39958266#1 39958266#2 39958266#3 -324752523 -324752524 -324752522 175790472#11 30801681#3 30801681#2 30801681#1 30801681#0 -176910667#1 -176910667#2 -176910667#4 -176910667#5 -176910667#6 -176910667#7 -176910667#8 -176910667#9 -176910667#10 -176910667#11 -176910667#12 -176910667#13 37720452#2 37720452#1 37720450#1 37720450#2 184796749#0 184796749#1 184796749#2 184796749#3 32644646#5 32644646#4 176910654#0"/>
    </person>
    <person id="ped42" depart="35.55">
        <walk edges="37356160#0 37394167#2 30416808#2 30416808#1 30416808#0 37180298#1 37180298#2 37180298#3 37180298#4 181961191#7 203364095 177308080#8 30166961#6 30166961#5 177308117#3 177308117#2 177308117#0 324751738 181961195#2 181961195#1 181961195#0 181961196 175999132#2 175999132#0 181961188#9 -56026350#0 -56026350#1 -56026350#2 -56026350#3 -30529779#2"/>
    </person>
    <person id="ped43" depart="36.40">
        <walk edges="177308057#4 37180725#10 38062734 -324752523 39958266#3 39958266#2 39958266#1 261551754#0 261551756 261551754#2 181961195#1 181961195#2 -324751738 324751741#4 324751741#2 324751741#1 30416921#0 30416921#1 30416921#2 30416921#3 324751761#9"/>
    </person>
    <person id="ped44" depart="37.24">
        <walk edges="-324985147#2 -324985147#1 324985147#0 38060303#3 38060303#2 38060303#1 38060303#0 69221692#0 30598958#4 30598958#3 30598958#2 30598958#1 177338975 30417941#3 30417941#2 30417941#1 205013609#0 266670739#4 205013604#1 -205013604#2 -205013604#3 -205013604#4 -326910420 -326910419#0 -326910419#1 279549602#0"/>
    </person>
    <person id="ped46" depart="38.94">
        <walk edges="266666411#2 37295846#1 -205013604#0 -205013604#1 -205013604#2 -205013604#3 -205013604#4 -326910420 326910419#0 326910419#1 326910419#2 326910419#3 326910419#4 326910419#5 205013608 69103370#2 69103370#3 171874524#0 182173184#4 182173184#3 182173184#2 170268788#1 182173194#1 -324242032 30993534#1 30993534#2 30416996 180328745#0 180328745#1 180328745#2 180328746#0 180328746#1 221265721#0 221265721#1 221265721#2 -324579708 -266152523 177308106#1 194799779 -194799782#0 -194799789#1 -194799789#2 -194799780#3 194799780#3"/>
    </person>
    <person id="ped47" depart="39.78">
        <walk edges="37356322#1 37502324#6 37502324#7 37343410#1+37502324#8 37502324#9 30417409 37428725 290619176 290619174#0 290619174#1 290619174#2 290619174#3 37394816#2 37394816#3 37394816#4 37394816#6 37394816#7 290618576#0 290618576#1 290618576#2 290618576#3 290618576#4 290618576#5 290618576#6 290618576#7 290618576#8 290618576#10 290618576#11 324751750 37180727#0 -37180727#1 -37180727#2 -37180727#4 -37180727#5 -37180727#8 184162395#2 184162395#1 184162395#0 30534063#7 30534063#6 30534063#5 177308090#0"/>
    </person>
    <person id="ped48" depart="40.63">
        <walk edges="29019954#0 29019892#4 29019892#5 29019892#6 29019892#7 29019892#8 29019892#9 29019892#10 37356322#0"/>
    </person>
    <person id="ped49" depart="41.47">
        <walk edges="304398988#0 304398988#1 38044978 172022403#1 38044976 172022404 29062008#8 29062008#9 29062008#10 290617982#0 290617982#1 290617982#2 290617982#3 290617982#4 290617982#5 29062005#0 29019833 224716862#0 224716862#1 224716862#2 224716862#3 29019951 37502324#2 37502324#3 37502324#4 37502324#5 37502324#6 37348433 30417814#0 30417814#1 30417814#2 30417814#3 290404535#0 290404535#1 290404535#2 290404535#3 290404535#4 290404535#5 290404535#6 290404535#7 290404535#8 -265745121#2"/>
    </person>
    <person id="ped50" depart="42.32">
        <walk edges="266666409#2 -266666416#0 -266666416#1 -266666416#2 -266666416#3"/>
    </person>
    <person id="ped51" depart="43.17">
        <walk edges="179731503#1 179731504#2 186259172#0 180762425#1 180762423#1 180762427#1 -179731505#1 182015533#1 182015533#0 176910667#13 176910667#12 176910667#11 176910667#10 176910667#9 176910667#8 176910667#7 176910667#6 176910667#5 176910667#4 176910667#2 176910667#1 30801681#0 30801681#1 30801681#2 30801681#3 175790472#11 -324752522 -324752524 -324752523 39958266#3 39958266#2 39958266#1 261551754#0 261551756 261551754#2 -181961195#1 -181961195#2 101940018 324996451 37180301#1 37174474#2 37174474#3 184162399 324996450#3 324996450#4 324752299 37180547#2 37180547#1 37180547#0"/>
    </person>
    <person id="ped53" depart="44.86">
        <walk edges="38923009#9 38923009#8 38923009#7 38923009#6 38923009#5 38923009#4 38923009#3 38923009#2 -266658732 324043272#2 266666395#1 -205013607#2 -205013607#1 -205013607#0 205013611#1 205013617#0 205013617#1 30417941#2 30417941#3 177338975 30598958#1 38060296#0 38060296#1 324991231 30919063#6 30919063#5 69221692#2 69221692#3"/>
    </person>
    <person id="ped54" depart="45.71">
        <walk edges="169017784#4 -190430258 324317861 32761448 30529779#6 324751731#3 324751731#2 324751731#1 176906141#6 176906141#5 176906141#4 176906141#3 176906141#2 176906141#1 176906141#0 175999142 -181961195#0 -181961195#1 -181961195#2 324751738 177308117#0 177308117#2 177308117#3 30166961#5 30166961#6 30166961#7 37394166 181961191#8"/>
    </person>
    <person id="ped56" depart="47.40">
        <walk edges="30416913#5 37347754#1 37347754#2 37347754#3 37347754#4 37347754#5 37394816#1 37394816#2 37394816#3 37394169#3 37394168#1 37394168#0 37352070#2"/>
    </person>
    <person id="ped57" depart="48.25">
        <walk edges="30567637#4 30567637#3 169015057#2 181961188#1 176906141#6 175999106#1 175999106#0 175999097#0 40755249#3 200916234#1 41672012#0 41672012#1 41672012#2 177308085 30533953#4 177308113 177308119#0 177308119#1 177308119#2 177308119#3 177308119#4 177308048 177308102#0 177308102#1 30534063#6 30534063#7 184162395#0 324752295#2 324752295#1"/>
    </person>
    <person id="ped58" depart="49.09">
        <walk edges="177308054#6 177308054#5 177308054#3 177308054#2 177308054#1 177308054#0 182007936#4 182007936#3 182007936#2 182007936#0 156437791#4 156437791#3 156437791#2 156437791#1 156437791#0 180328745#2 180328745#1 180328745#0 30416996 30993534#2 30993534#1 -324242032 -37350433"/>
    </person>
    <person id="ped59" depart="49.94">
        <walk edges="37502324#15 38062739#1 180372099#0 37394167#3 37394167#2 30416808#2 30416808#1 30416808#0 37180298#1 37180298#2 37180298#3 37180298#4 203364093 177308080#6 177308080#5"/>
    </person>
    <person id="ped60" depart="50.79">
        <walk edges="30567637#3 169015057#2 181961188#1 176906141#6 175999106#1 175999106#0 175999097#0 40755249#3 200916234#1 41672012#0 41672012#1 41672012#2 177308085 30533953#4 177308113 177308119#0 177308119#1 177308119#2 177308119#3 177308119#4 177308048 177308102#0 177308102#1 30534063#5 30534063#4 177308056#1 177308056#0 30533575#6 30533575#5 30533575#4 30533575#3 30533575#2 30533575#1 33128300 33128293#4 -34878500#0 -34878500#1 40755276#1 178662851 30801995#2 30801995#3"/>
    </person>
    <person id="ped61" depart="51.63">
        <walk edges="268556970#2 290619174#1 290619174#2 290619174#3 37394816#2 37394816#3 37394816#4 37394816#6 37394816#7 290618576#0 290618576#1 290618576#2 290618576#3 290618576#4 290618576#5 290618576#6 290618576#7 290618576#8 290618576#10 290618576#11 324751750 37180727#0 -37180727#1 -37180727#2 -37180727#4 -37180727#5 -37180727#8 184162395#2 184162395#1 184162395#0 30534063#7 30534063#6"/>
    </person>
    <person id="ped62" depart="52.48">
        <walk edges="30417720#1 268556970#1 290619174#0 290619176 37428725 30417409 37502324#9 37343410#1+37502324#8 37502324#7 37502324#6 37502324#5 37502324#4 37502324#3 37502324#2 29019951 224716862#3 224716862#2 224716862#1 224716862#0 29019833 29062005#1 188664139 182007938#8 29062014#8 37501151#2 37501151#3 304384082#3 304384082#4 37180984#0 37180984#1 37180984#2 37180984#3 38060288#1 38060288#2 38060288#3 38060288#4 38060288#5"/>
    </person>
    <person id="ped63" depart="53.32">
        <walk edges="175999147#2 175999147#1 175999147#0 180135575 32881921 324317005#1 175999151#1 181961188#0 181961188#1 176906141#6 175999106#1 175999106#0 175999097#0 40755249#3 200916234#1 41672012#0 41672012#1 41672012#2 177308085 30533953#4 177308113 177308119#0 177308119#1 177308119#2 177308119#3 177308119#4 177308048 177308102#0 177308102#1 30534063#5 30534063#4 30534063#3 324751767#3 33128045#2 33128045#3"/>
    </person>
    <person id="ped64" depart="54.17">
        <walk edges="324751767#2 30533523#8 30533523#9 324751758 37180547#0 37180547#1 37180547#2 324752299 324996450#4 324996450#3 324751753#0 324751753#1 324996453#0 324996453#1 30166961#3 30166961#4 30166961#5 30166961#6 177308080#8 177308080#7 177308080#6 177308080#5 177308080#4 177308080#3 177308080#2 182007936#0"/>
    </person>
    <person id="ped65" depart="55.02">
        <walk edges="182175778 182175770#1 182175781#0 -182175774#3 -182175774#2 -182175774#1 -182175774#0 175793371 182175777 -182175773 37720452#0 37720452#1 37720452#2 -176910667#13 -176910667#12 -176910667#11 -176910667#10 -176910667#9 -176910667#8 -176910667#7 -176910667#6 -176910667#5 -176910667#4 -176910667#2 -176910667#1 30801681#0 30801681#1 30801681#2 30801681#3 175790472#11 -324752522 177308083 33127320#1 184165530 184165533#0 33175456 33175453#2 33175453#3 33175453#4 30534063#4 177308056#1 177308056#0 30533575#6 30533575#5 30533575#4 30533575#3 30533575#2 30533575#1 33128300 33128293#4 -34878500#0 -34878500#1 34878500#1"/>
    </person>
    <person id="ped66" depart="55.86">
        <walk edges="-30533575#0 37414054 33128045#7 33128045#6 33128045#5 33128045#4 33128045#3 33128045#2 33128045#1 33128045#0 -37180727#5 -37180727#4 -37180727#2 -37180727#1 37180727#0 324751750 290618576#11 290618576#10"/>
    </person>
    <person id="ped67" depart="56.71">
        <walk edges="-30533575#3 30533575#4 30533575#5 30533575#6 177308056#0 177308056#1 30534063#4 30534063#5 177308102#1 177308102#0 177308048 177308049 177308061 37174474#3 37174474#2 37180301#1 324996451 101940018 -181961195#2 -181961195#1 181961195#0 181961196 324751734#2 324751734#1 182175776 324751736 177308065 176908068#6 176908068#5 176908068#4 176908068#3 176908068#1 176908068#0"/>
    </person>
    <person id="ped68" depart="57.56">
        <walk edges="237095112#0 30565122#5 30565122#4 30565122#3 324752778#3 324752778#4 224716861#0 224716861#2 224716861#3 224716861#4 224716861#5 30416913#0 30416913#1 30416913#2 30416913#3 30416913#4 30416913#5 30416913#6 37350432#2 30993534#2 30993534#1 170268763"/>
    </person>
    <person id="ped69" depart="58.40">
        <walk edges="324751729#4 175999129#1 175999158#2 175999158#1 175999158#0 30418160#1 30418160#0 -324317862#5 37413765 -175999108#2"/>
    </person>
    <person id="ped70" depart="59.25">
        <walk edges="-34878500#0 33128293#4 33128300 30533575#1 30533575#2 30533575#3 30533575#4 30533575#5 30533575#6 177308056#0 177308056#1 30534063#4 30534063#5 177308102#1 177308102#0 177308048 177308119#4 177308119#3 177308119#2 177308119#1 177308119#0 177308113 30533953#4 177308085 41672012#2 41672012#1 41672012#0 200916234#1 40755249#3 175999097#0 175999106#0 175999106#1 176906141#6 324751731#1 324751731#2 324751731#3 30529779#5"/>
    </person>
    <person id="ped71" depart="60.10">
        <walk edges="33128045#7 33128045#6 33128045#5 33128045#4 33128045#3 33128045#2 324751767#3 30534063#3 30534063#4 30534063#5 177308102#1 177308102#0 177308048 177308119#4 177308119#3 177308119#2 177308119#1 177308119#0 177308113 30533953#4 177308085 41672012#2 41672012#1 41672012#0 200916234#1 40755249#3 175999097#0 175999106#0 175999106#1 176906141#6 181961188#1 181961188#0 175999151#1 324317005#1 32881921 180135575 175999147#0"/>
    </person>
    <person id="ped72" depart="60.94">
        <walk edges="315472690 37174491#6 30416841#1 30416841#0 182857084#2 182857084#1 182857084#0 30565218#1 30565218#0 324752779 37174481#5 37174481#4 37174481#3 37174481#2 37174481#1 37174481#0 324752523 324752524 324752522 175790472#11 30801681#3 30801681#2 30801681#1 30801681#0 176910667#1 176910667#2 176910667#4 176910667#5 176910667#6 176910667#7 176910667#8 176910667#9 176910667#10 176910667#11 176910667#12 176910667#13 182015533#0 182015533#1 -179731505#1 180762427#1 180762423#1 180762425#0 179731490#0 179731491#4"/>
    </person>
    <person id="ped73" depart="61.79">
        <walk edges="30166961#7 177308080#8 203364095 181961191#7 37180298#4 37180298#3 37180298#2 37180298#1 37180298#0 37394816#1 37394816#0 37394817#0 37394817#1 37394817#2 290619172#1 290619172#2 37350432#0 37350432#1 37350432#2 265760472#6 265760472#5 265760472#4+265762360#1 265760472#3+265762360#0 265762360#5 265762358#1 265762359 37343420#0 182173189 37722022"/>
    </person>
    <person id="ped74" depart="62.64">
        <walk edges="37350434#2 265760472#6 37350432#2 37350432#1 37350432#0 290619172#2 290619172#1 37394817#2 37394817#1 37394817#0 37394816#0 37394816#1 37394816#2 37394816#3 37394816#4 37394816#6 37394816#7 290618576#0 290618576#1 290618576#2 290618576#3 290618576#4 290618576#5 30416743#2 30416743#1 -324751745 -324751746 -324751748#0 -324751748#1 -324751748#2 -324751748#3 -324751748#4 -324751748#6"/>
    </person>
    <person id="ped76" depart="64.33">
        <walk edges="-30534013#0 30533991#2 -37180739#1 37413767 -177308055 177308090#0 30534063#4 177308056#1 177308056#0 30533575#6 30533575#5 30533575#4 30533575#3 30533575#2 30533575#1 37414054"/>
    </person>
    <person id="ped77" depart="65.17">