<?xml version="1.0"?>
<!-- generated on 2015-09-10 12:48:03.285509 by $Id: route2trips.py 18237 2015-04-20 10:43:52Z namdre $ -->
<trips>
    <vType vClass="truck" id="truck"/>
    <trip id="truck0" depart="0.00" departLane="best" from="30567551#2" to="-180135573#2" type="truck"/>
    <trip id="truck1" depart="7.91" departLane="best" from="324752295#3" to="324751729#3" type="truck"/>
    <trip id="truck2" depart="15.82" departLane="best" from="37383983" to="-290618571" type="truck"/>
    <trip id="truck3" depart="23.73" departLane="best" from="194828057#0" to="-180762422#0" type="truck"/>
    <trip id="truck4" depart="31.64" departLane="best" from="-180878324" to="171751484#2" type="truck"/>
    <trip id="truck5" depart="39.55" departLane="best" from="30598875#1" to="30418072#6" type="truck"/>
    <trip id="truck6" depart="47.46" departLane="best" from="159554244#0" to="30534063#5" type="truck"/>
    <trip id="truck7" depart="55.37" departLane="best" from="37174474#2" to="-169017784#1" type="truck"/>
    <trip id="truck8" depart="63.28" departLane="best" from="37164516#1" to="324751767#2" type="truck"/>
    <trip id="truck9" depart="71.19" departLane="best" from="177338966" to="-41672012#1" type="truck"/>
    <trip id="truck10" depart="79.10" departLane="best" from="38923216#1" to="182592122#1" type="truck"/>
    <trip id="truck11" depart="87.01" departLane="best" from="-279549605" to="-30567637#1" type="truck"/>
    <trip id="truck12" depart="94.92" departLane="best" from="37180741#0" to="30598581#0" type="truck"/>
    <trip id="truck13" depart="102.83" departLane="best" from="37174473#0" to="324994581" type="truck"/>
    <trip id="truck15" depart="118.65" departLane="best" from="182007936#0" to="304384082#11" type="truck"/>
    <trip id="truck16" depart="126.56" departLane="best" from="37180463#0" to="30598985#7" type="truck"/>
    <trip id="truck17" depart="134.47" departLane="best" from="37180988#0" to="30533752#4" type="truck"/>
    <trip id="truck18" depart="142.38" departLane="best" from="324241987" to="-194799746" type="truck"/>
    <trip id="truck20" depart="158.20" departLane="best" from="-268307751" to="175999158#1" type="truck"/>
    <trip id="truck21" depart="166.11" departLane="best" from="-30533575#2" to="177308106#0" type="truck"/>
    <trip id="truck22" depart="174.02" departLane="best" from="30564973#5" to="194799786#2" type="truck"/>
    <trip id="truck23" depart="181.94" departLane="best" from="175793372" to="38060303#0" type="truck"/>
    <trip id="truck24" depart="189.85" departLane="best" from="-37347752" to="324994580#1" type="truck"/>
    <trip id="truck25" depart="197.76" departLane="best" from="-37180733#2" to="205013618#5" type="truck"/>
    <trip id="truck26" depart="205.67" departLane="best" from="56026350#3" to="30919063#6" type="truck"/>
    <trip id="truck27" depart="213.58" departLane="best" from="30417206#1" to="324751745" type="truck"/>
    <trip id="truck28" depart="221.49" departLane="best" from="37180733#2" to="335278790" type="truck"/>
    <trip id="truck29" depart="229.40" departLane="best" from="169051254#1" to="-180878327" type="truck"/>
    <trip id="truck30" depart="237.31" departLane="best" from="119447286#0" to="38060319" type="truck"/>
    <trip id="truck31" depart="245.22" departLane="best" from="37350432#4" to="181961191#8" type="truck"/>
    <trip id="truck32" depart="253.13" departLane="best" from="30598958#2" to="246519196#1" type="truck"/>
    <trip id="truck35" depart="276.86" departLane="best" from="30417335#5" to="177308056#0" type="truck"/>
    <trip id="truck36" depart="284.77" departLane="best" from="30418155#0" to="37501148" type="truck"/>
    <trip id="truck37" depart="292.68" departLane="best" from="184162394#1" to="175999088#2" type="truck"/>
    <trip id="truck39" depart="308.50" departLane="best" from="-279549604#0" to="-194799780#2" type="truck"/>
    <trip id="truck40" depart="316.41" departLane="best" from="-30918556#1" to="30663264#2-AddedOnRampEdge" type="truck"/>
    <trip id="truck42" depart="332.23" departLane="best" from="-266658733" to="207175682#0" type="truck"/>
    <trip id="truck43" depart="340.14" departLane="best" from="69221704" to="30417705#6" type="truck"/>
    <trip id="truck45" depart="355.96" departLane="best" from="-176908068#6" to="324986674" type="truck"/>
    <trip id="truck46" depart="363.87" departLane="best" from="30951755#2" to="30417973#12" type="truck"/>
    <trip id="truck47" depart="371.78" departLane="best" from="175793372" to="30951755#2" type="truck"/>
    <trip id="truck48" depart="379.69" departLane="best" from="-324041277" to="268408771#1" type="truck"/>
    <trip id="truck49" depart="387.60" departLane="best" from="246519196#0" to="38923009#9" type="truck"/>
    <trip id="truck50" depart="395.51" departLane="best" from="37350432#2" to="177308057#1" type="truck"/>
    <trip id="truck51" depart="403.42" departLane="best" from="290618571" to="169051254#1" type="truck"/>
    <trip id="truck52" depart="411.33" departLane="best" from="176910663" to="30919063#3" type="truck"/>
    <trip id="truck54" depart="427.15" departLane="best" from="324996451" to="30417973#9" type="truck"/>
    <trip id="truck55" depart="435.06" departLane="best" from="33128043#0" to="30417755#4" type="truck"/>
    <trip id="truck56" depart="442.97" departLane="best" from="-103992207#0" to="182015533#5" type="truck"/>
    <trip id="truck57" depart="450.88" departLane="best" from="-180082654" to="38060284#1" type="truck"/>
    <trip id="truck58" depart="458.79" departLane="best" from="37351132#3" to="37180896#0" type="truck"/>
    <trip id="truck59" depart="466.70" departLane="best" from="176954470#0" to="-205013604#0" type="truck"/>
    <trip id="truck60" depart="474.61" departLane="best" from="37351132#1" to="38062734" type="truck"/>
    <trip id="truck61" depart="482.52" departLane="best" from="-279548233" to="29062013#6" type="truck"/>
    <trip id="truck62" depart="490.43" departLane="best" from="-266666397" to="33128293#4" type="truck"/>
    <trip id="truck63" depart="498.34" departLane="best" from="32644569#7" to="-37180301#0" type="truck"/>
    <trip id="truck64" depart="506.25" departLane="best" from="268556970#2" to="304384073#1" type="truck"/>
    <trip id="truck65" depart="514.16" departLane="best" from="175790484#1" to="37356160#0" type="truck"/>
    <trip id="truck66" depart="522.07" departLane="best" from="194828057#3" to="175790476#1" type="truck"/>
    <trip id="truck67" depart="529.98" departLane="best" from="30416808#1" to="324994582" type="truck"/>
    <trip id="truck68" depart="537.89" departLane="best" from="-41672012#1" to="181961191#0" type="truck"/>
    <trip id="truck70" depart="553.72" departLane="best" from="205403434#0" to="30416961#1" type="truck"/>
    <trip id="truck71" depart="561.63" departLane="best" from="169051258#1" to="175999092#3" type="truck"/>
    <trip id="truck72" depart="569.54" departLane="best" from="-266666409#4" to="30801995#0" type="truck"/>
    <trip id="truck73" depart="577.45" departLane="best" from="169051254#0" to="37720450#2" type="truck"/>
    <trip id="truck74" depart="585.36" departLane="best" from="37180987#3" to="-266666376" type="truck"/>
    <trip id="truck75" depart="593.27" departLane="best" from="171684933#0" to="324317005#0" type="truck"/>
    <trip id="truck76" depart="601.18" departLane="best" from="142487124" to="-37180727#8" type="truck"/>
    <trip id="truck77" depart="609.09" departLane="best" from="38060288#7" to="30533523#4" type="truck"/>
    <trip id="truck78" depart="617.00" departLane="best" from="266666416#2" to="360580450" type="truck"/>
    <trip id="truck79" depart="624.91" departLane="best" from="37174473#2" to="171698525#0" type="truck"/>
    <trip id="truck80" depart="632.82" departLane="best" from="-290617981" to="268307751" type="truck"/>
    <trip id="truck81" depart="640.73" departLane="best" from="200916232" to="290618576#1" type="truck"/>
    <trip id="truck82" depart="648.64" departLane="best" from="324751761#7" to="324578414#0" type="truck"/>
    <trip id="truck83" depart="656.55" departLane="best" from="4526387#6" to="-30598962" type="truck"/>
    <trip id="truck84" depart="664.46" departLane="best" from="184165533#0" to="182857087#0" type="truck"/>
    <trip id="truck85" depart="672.37" departLane="best" from="37180988#0" to="176910654#0" type="truck"/>
    <trip id="truck87" depart="688.19" departLane="best" from="194828057#0" to="177308111" type="truck"/>
    <trip id="truck88" depart="696.10" departLane="best" from="30416939#1" to="-194799786#0" type="truck"/>
    <trip id="truck89" depart="704.01" departLane="best" from="69730786#0" to="37180981#1" type="truck"/>
    <trip id="truck91" depart="719.83" departLane="best" from="37180894" to="146974253#0" type="truck"/>
    <trip id="truck92" depart="727.74" departLane="best" from="285267650#1" to="175790489#2" type="truck"/>
    <trip id="truck93" depart="735.65" departLane="best" from="184162398" to="-205013604#3" type="truck"/>
    <trip id="truck94" depart="743.56" departLane="best" from="182007936#3" to="4526409#2" type="truck"/>
    <trip id="truck95" depart="751.47" departLane="best" from="175790484#1" to="360580450" type="truck"/>
    <trip id="truck96" depart="759.38" departLane="best" from="246519196#0" to="266666411#1" type="truck"/>
    <trip id="truck97" depart="767.29" departLane="best" from="38923216#1" to="69221692#3" type="truck"/>
    <trip id="truck98" depart="775.20" departLane="best" from="30416961#6" to="324985730#0" type="truck"/>
    <trip id="truck99" depart="783.11" departLane="best" from="-360580450" to="180762419#1" type="truck"/>
    <trip id="truck101" depart="798.93" departLane="best" from="30416841#4" to="33127320#1" type="truck"/>
    <trip id="truck102" depart="806.84" departLane="best" from="-250563620#2" to="30533953#4" type="truck"/>
    <trip id="truck103" depart="814.75" departLane="best" from="290618575" to="37347752" type="truck"/>
    <trip id="truck104" depart="822.66" departLane="best" from="-37180301#0" to="38923503#3" type="truck"/>
    <trip id="truck105" depart="830.57" departLane="best" from="304384082#6" to="324579709#0" type="truck"/>
    <trip id="truck106" depart="838.48" departLane="best" from="171674593#1" to="-324986673" type="truck"/>
    <trip id="truck107" depart="846.39" departLane="best" from="304384082#4" to="30616901" type="truck"/>
    <trip id="truck108" depart="854.30" departLane="best" from="194799789#0" to="30533953#2" type="truck"/>
    <trip id="truck109" depart="862.21" departLane="best" from="29062013#8" to="38060293#1" type="truck"/>
    <trip id="truck110" depart="870.12" departLane="best" from="-56026350#2" to="324985725" type="truck"/>
    <trip id="truck112" depart="885.94" departLane="best" from="30801995#5" to="180762422#1" type="truck"/>
    <trip id="truck113" depart="893.85" departLane="best" from="-266666413" to="290617980#0" type="truck"/>
    <trip id="truck114" depart="901.76" departLane="best" from="69730786#0" to="69221692#5" type="truck"/>
    <trip id="truck115" depart="909.68" departLane="best" from="-266666414" to="175790484#1" type="truck"/>
    <trip id="truck116" depart="917.59" departLane="best" from="175790484#1" to="38060291#3" type="truck"/>
    <trip id="truck117" depart="925.50" departLane="best" from="37352070#0" to="37376903" type="truck"/>
    <trip id="truck119" depart="941.32" departLane="best" from="37174492#1" to="180762422#1" type="truck"/>
    <trip id="truck120" depart="949.23" departLane="best" from="30616907#2" to="38060305#3" type="truck"/>
    <trip id="truck121" depart="957.14" departLane="best" from="-324986671#1" to="-324752299" type="truck"/>
    <trip id="truck122" depart="965.05" departLane="best" from="-30616901" to="304384082#14" type="truck"/>
    <trip id="truck123" depart="972.96" departLane="best" from="175999092#3" to="30598584#0" type="truck"/>
    <trip id="truck124" depart="980.87" departLane="best" from="324751739#2" to="171874660#1" type="truck"/>
    <trip id="truck125" depart="988.78" departLane="best" from="29019892#6" to="37720450#2" type="truck"/>
    <trip id="truck126" depart="996.69" departLane="best" from="200916232" to="177308099#1" type="truck"/>
    <trip id="truck127" depart="1004.60" departLane="best" from="-159080707" to="33175457" type="truck"/>
    <trip id="truck128" depart="1012.51" departLane="best" from="324985134#0" to="304384082#10" type="truck"/>
    <trip id="truck129" depart="1020.42" departLane="best" from="202278346#0" to="-175999108#1" type="truck"/>
    <trip id="truck130" depart="1028.33" departLane="best" from="-266666416#2" to="37383977#1" type="truck"/>
    <trip id="truck131" depart="1036.24" departLane="best" from="37394817#5" to="30418155#1" type="truck"/>
    <trip id="truck132" depart="1044.15" departLane="best" from="37180725#7" to="30533904#3" type="truck"/>
    <trip id="truck133" depart="1052.06" departLane="best" from="-335278788#0" to="-336455025" type="truck"/>
    <trip id="truck134" depart="1059.97" departLane="best" from="176954470#6" to="37501151#1" type="truck"/>
    <trip id="truck135" depart="1067.88" departLane="best" from="33175456" to="37350432#3" type="truck"/>
    <trip id="truck136" depart="1075.79" departLane="best" from="37394610#0" to="175790472#4" type="truck"/>
    <trip id="truck137" depart="1083.70" departLane="best" from="187567450#2" to="30616901" type="truck"/>
    <trip id="truck138" depart="1091.61" departLane="best" from="-360580450" to="38060288#1" type="truck"/>
    <trip id="truck139" depart="1099.52" departLane="best" from="37295846#5" to="40577572#2" type="truck"/>
    <trip id="truck140" depart="1107.43" departLane="best" from="37174481#1" to="37376908" type="truck"/>
    <trip id="truck141" depart="1115.34" departLane="best" from="-180762422#1" to="32644569#6" type="truck"/>
    <trip id="truck142" depart="1123.25" departLane="best" from="177308102#0" to="38060288#4" type="truck"/>
    <trip id="truck143" depart="1131.16" departLane="best" from="34878500#1" to="37351132#0" type="truck"/>
    <trip id="truck144" depart="1139.07" departLane="best" from="33128295" to="-324579709#0" type="truck"/>
    <trip id="truck146" depart="1154.89" departLane="best" from="169013928#0" to="37180725#5" type="truck"/>
    <trip id="truck147" depart="1162.80" departLane="best" from="265745120#1" to="181737750#5" type="truck"/>
    <trip id="truck148" depart="1170.71" departLane="best" from="33175453#2" to="175999132#0" type="truck"/>
    <trip id="truck149" depart="1178.62" departLane="best" from="-180762421" to="171698588#2" type="truck"/>
    <trip id="truck150" depart="1186.53" departLane="best" from="177308080#7" to="37351132#1" type="truck"/>
    <trip id="truck151" depart="1194.44" departLane="best" from="30567637#0" to="24684016#6" type="truck"/>
    <trip id="truck152" depart="1202.35" departLane="best" from="4526354#6" to="30417973#10" type="truck"/>
    <trip id="truck153" depart="1210.26" departLane="best" from="38060296#2" to="-324752299" type="truck"/>
    <trip id="truck155" depart="1226.08" departLane="best" from="38923503#3" to="177308060#3" type="truck"/>
    <trip id="truck156" depart="1233.99" departLane="best" from="-30616970" to="268408771#1" type="truck"/>
    <trip id="truck157" depart="1241.90" departLane="best" from="30530322#3" to="30416921#4" type="truck"/>
    <trip id="truck158" depart="1249.81" departLane="best" from="182015538#0" to="30533752#2" type="truck"/>
    <trip id="truck159" depart="1257.72" departLane="best" from="171874524#0" to="324985134#0" type="truck"/>
    <trip id="truck161" depart="1273.55" departLane="best" from="30416800#1" to="324986671#0" type="truck"/>
    <trip id="truck162" depart="1281.46" departLane="best" from="324985137" to="324317862#0" type="truck"/>
    <trip id="truck163" depart="1289.37" departLane="best" from="181737751#0" to="-266666374#0" type="truck"/>
    <trip id="truck164" depart="1297.28" departLane="best" from="177308054#1" to="37342226#5" type="truck"/>
    <trip id="truck165" depart="1305.19" departLane="best" from="324751743" to="180762422#1" type="truck"/>
    <trip id="truck166" depart="1313.10" departLane="best" from="177068340" to="265745121#2" type="truck"/>
    <trip id="truck167" depart="1321.01" departLane="best" from="184165533#0" to="180762417#0" type="truck"/>
    <trip id="truck168" depart="1328.92" departLane="best" from="-324751770#0" to="266666397" type="truck"/>
    <trip id="truck169" depart="1336.83" departLane="best" from="38060298" to="324751729#4" type="truck"/>
    <trip id="truck170" depart="1344.74" departLane="best" from="37394817#2" to="30598983#0" type="truck"/>
    <trip id="truck171" depart="1352.65" departLane="best" from="176910667#11" to="30418160#1" type="truck"/>
    <trip id="truck172" depart="1360.56" departLane="best" from="-103992207#0" to="177573963" type="truck"/>
    <trip id="truck173" depart="1368.47" departLane="best" from="205013604#3" to="30533820#3" type="truck"/>
    <trip id="truck174" depart="1376.38" departLane="best" from="30598950" to="290618573#2" type="truck"/>
    <trip id="truck175" depart="1384.29" departLane="best" from="221475378" to="175790489#2" type="truck"/>
    <trip id="truck176" depart="1392.20" departLane="best" from="266666416#3" to="37503191" type="truck"/>
    <trip id="truck178" depart="1408.02" departLane="best" from="-270375655" to="30416939#5" type="truck"/>
    <trip id="truck179" depart="1415.93" departLane="best" from="30534383#1" to="182175783" type="truck"/>
    <trip id="truck180" depart="1423.84" departLane="best" from="37174492#5" to="33128045#0" type="truck"/>
    <trip id="truck183" depart="1447.57" departLane="best" from="171698588#0" to="290619181#2" type="truck"/>
    <trip id="truck184" depart="1455.48" departLane="best" from="37180895#0" to="-266666409#3" type="truck"/>
    <trip id="truck185" depart="1463.39" departLane="best" from="194799781#0" to="30801681#3" type="truck"/>
    <trip id="truck187" depart="1479.21" departLane="best" from="290617321#1" to="176908068#6" type="truck"/>
    <trip id="truck188" depart="1487.12" departLane="best" from="30598958#4" to="-159554254#0" type="truck"/>
    <trip id="truck189" depart="1495.03" departLane="best" from="324985730#3" to="33175453#3" type="truck"/>
    <trip id="truck190" depart="1502.94" departLane="best" from="-30616901" to="266666414" type="truck"/>
    <trip id="truck191" depart="1510.85" departLane="best" from="-37376903" to="38923311#3" type="truck"/>
    <trip id="truck192" depart="1518.76" departLane="best" from="29062008#8" to="-194799786#0" type="truck"/>
    <trip id="truck193" depart="1526.67" departLane="best" from="171723884" to="37342226#5" type="truck"/>
    <trip id="truck194" depart="1534.58" departLane="best" from="24684016#2" to="37180293#1" type="truck"/>
    <trip id="truck196" depart="1550.40" departLane="best" from="304384082#9" to="38923009#2" type="truck"/>
    <trip id="truck197" depart="1558.31" departLane="best" from="37383977#1" to="30598948#1" type="truck"/>
    <trip id="truck198" depart="1566.22" departLane="best" from="37180463#3" to="30418160#1" type="truck"/>
    <trip id="truck199" depart="1574.13" departLane="best" from="37394607#1" to="326910419#5" type="truck"/>
    <trip id="truck200" depart="1582.04" departLane="best" from="171699103#1" to="30802013#3-AddedOnRampEdge" type="truck"/>
    <trip id="truck201" depart="1589.95" departLane="best" from="32644569#7" to="30417206#3" type="truck"/>
    <trip id="truck202" depart="1597.86" departLane="best" from="30534013#0" to="177308094#0" type="truck"/>
    <trip id="truck203" depart="1605.77" departLane="best" from="175999092#0" to="182007938#0" type="truck"/>
    <trip id="truck204" depart="1613.68" departLane="best" from="30416834#0" to="-37180894" type="truck"/>
    <trip id="truck205" depart="1621.59" departLane="best" from="169051263" to="324751761#8" type="truck"/>
    <trip id="truck206" depart="1629.50" departLane="best" from="324317005#0" to="-250563617#1" type="truck"/>
    <trip id="truck208" depart="1645.33" departLane="best" from="194799782#2" to="172022403#0" type="truck"/>
    <trip id="truck209" depart="1653.24" departLane="best" from="194799789#2" to="37503198#1" type="truck"/>
    <trip id="truck210" depart="1661.15" departLane="best" from="30418072#4" to="324751765" type="truck"/>
    <trip id="truck211" depart="1669.06" departLane="best" from="37180984#1" to="33128564#2-AddedOffRampEdge" type="truck"/>
    <trip id="truck212" depart="1676.97" departLane="best" from="182007938#2" to="-159554254#1" type="truck"/>
    <trip id="truck213" depart="1684.88" departLane="best" from="180762419#0" to="33128045#7" type="truck"/>
    <trip id="truck214" depart="1692.79" departLane="best" from="37180980#1" to="38923009#9" type="truck"/>
    <trip id="truck215" depart="1700.70" departLane="best" from="194799789#0" to="33127320#0" type="truck"/>
    <trip id="truck216" depart="1708.61" departLane="best" from="30416913#6" to="30598482#4" type="truck"/>
    <trip id="truck217" depart="1716.52" departLane="best" from="159554244#0" to="175999088#2" type="truck"/>
    <trip id="truck218" depart="1724.43" departLane="best" from="205013618#2" to="-180762422#0" type="truck"/>
    <trip id="truck219" depart="1732.34" departLane="best" from="177308119#0" to="324751731#3" type="truck"/>
    <trip id="truck220" depart="1740.25" departLane="best" from="266666376" to="-34878500#0" type="truck"/>
    <trip id="truck221" depart="1748.16" departLane="best" from="30533904#4" to="-180135576" type="truck"/>
    <trip id="truck222" depart="1756.07" departLane="best" from="182857082#1" to="30530306#5" type="truck"/>
    <trip id="truck223" depart="1763.98" departLane="best" from="-181961195#1" to="30979908#2" type="truck"/>
    <trip id="truck224" depart="1771.89" departLane="best" from="-324991230" to="290617982#3" type="truck"/>
    <trip id="truck225" depart="1779.80" departLane="best" from="-245135214" to="205013618#4-AddedOnRampEdge" type="truck"/>
    <trip id="truck226" depart="1787.71" departLane="best" from="119447286#1-AddedOnRampEdge" to="182015538#0" type="truck"/>
    <trip id="truck227" depart="1795.62" departLane="best" from="324996450#1" to="205013618#4-AddedOnRampEdge" type="truck"/>
    <trip id="truck228" depart="1803.53" departLane="best" from="324986671#1" to="37180896#1" type="truck"/>
    <trip id="truck229" depart="1811.44" departLane="best" from="-180082654" to="30418000#0" type="truck"/>
    <trip id="truck230" depart="1819.35" departLane="best" from="99005064" to="184796749#7" type="truck"/>
    <trip id="truck231" depart="1827.26" departLane="best" from="30598875#1" to="34878500#2" type="truck"/>
    <trip id="truck232" depart="1835.17" departLane="best" from="30598933#3" to="33128045#8" type="truck"/>
    <trip id="truck234" depart="1850.99" departLane="best" from="-324751765" to="324317005#1" type="truck"/>
    <trip id="truck235" depart="1858.90" departLane="best" from="30417705#2" to="175999074#1" type="truck"/>
    <trip id="truck237" depart="1874.72" departLane="best" from="-37180896#2" to="30598837#0" type="truck"/>
    <trip id="truck238" depart="1882.63" departLane="best" from="324985724" to="-324751770#0" type="truck"/>
    <trip id="truck240" depart="1898.45" departLane="best" from="-30616970" to="-180135576" type="truck"/>
    <trip id="truck241" depart="1906.36" departLane="best" from="177308050" to="324751729#4" type="truck"/>
    <trip id="truck242" depart="1914.27" departLane="best" from="38923216#4" to="246519215" type="truck"/>
    <trip id="truck243" depart="1922.18" departLane="best" from="324751731#3" to="-266666417" type="truck"/>
    <trip id="truck244" depart="1930.09" departLane="best" from="310772654#0" to="30663264#2-AddedOnRampEdge" type="truck"/>
    <trip id="truck245" depart="1938.00" departLane="best" from="-324751735" to="4526387#5" type="truck"/>
    <trip id="truck246" depart="1945.91" departLane="best" from="33128048#0" to="184796749#2" type="truck"/>
    <trip id="truck247" depart="1953.82" departLane="best" from="202278347#0" to="205013604#0" type="truck"/>
    <trip id="truck248" depart="1961.73" departLane="best" from="290618576#7" to="182857090#1" type="truck"/>
    <trip id="truck249" depart="1969.64" departLane="best" from="37180895#0" to="37180727#4" type="truck"/>
    <trip id="truck250" depart="1977.55" departLane="best" from="-30567637#3" to="38923503#3" type="truck"/>
    <trip id="truck251" depart="1985.46" departLane="best" from="30564973#4" to="37180736#2" type="truck"/>
    <trip id="truck252" depart="1993.37" departLane="best" from="324317859" to="268556970#2" type="truck"/>
    <trip id="truck254" depart="2009.20" departLane="best" from="175999074#1" to="37180453" type="truck"/>
    <trip id="truck255" depart="2017.11" departLane="best" from="30416800#0" to="29062013#11" type="truck"/>
    <trip id="truck256" depart="2025.02" departLane="best" from="205013618#1" to="324996450#2" type="truck"/>
    <trip id="truck257" depart="2032.93" departLane="best" from="175793384#1" to="37343420#2" type="truck"/>
    <trip id="truck258" depart="2040.84" departLane="best" from="37180547#0" to="-290618571" type="truck"/>
    <trip id="truck259" depart="2048.75" departLane="best" from="37352070#2" to="176908068#6" type="truck"/>
    <trip id="truck260" depart="2056.66" departLane="best" from="266666359" to="30598933#2" type="truck"/>
    <trip id="truck261" depart="2064.57" departLane="best" from="182007936#3" to="-180762422#0" type="truck"/>
    <trip id="truck262" depart="2072.48" departLane="best" from="37180896#2" to="170268763" type="truck"/>
    <trip id="truck263" depart="2080.39" departLane="best" from="119447331" to="37174492#0" type="truck"/>
    <trip id="truck264" depart="2088.30" departLane="best" from="177338972#1" to="37376904" type="truck"/>
    <trip id="truck265" depart="2096.21" departLane="best" from="324043269#4" to="177308099#0" type="truck"/>
    <trip id="truck266" depart="2104.12" departLane="best" from="-176908068#1" to="38922730#2" type="truck"/>
    <trip id="truck268" depart="2119.94" departLane="best" from="310772654#0" to="30993606#1" type="truck"/>
    <trip id="truck269" depart="2127.85" departLane="best" from="290404535#0" to="37174481#4" type="truck"/>
    <trip id="truck270" depart="2135.76" departLane="best" from="-279549605" to="175999097#3" type="truck"/>
    <trip id="truck272" depart="2151.58" departLane="best" from="30418072#0" to="290619178#0" type="truck"/>
    <trip id="truck273" depart="2159.49" departLane="best" from="30166961#7" to="266666416#0" type="truck"/>
    <trip id="truck274" depart="2167.40" departLane="best" from="324985722#0" to="182175772" type="truck"/>
    <trip id="truck275" depart="2175.31" departLane="best" from="324043272#2" to="177308080#0" type="truck"/>
    <trip id="truck277" depart="2191.13" departLane="best" from="30416743#4" to="33128389#2" type="truck"/>
    <trip id="truck278" depart="2199.04" departLane="best" from="-38044985#3" to="175793384#1" type="truck"/>
    <trip id="truck279" depart="2206.95" departLane="best" from="279549606#0" to="324991232" type="truck"/>
    <trip id="truck280" depart="2214.86" departLane="best" from="40755249#0" to="30417335#4" type="truck"/>
    <trip id="truck282" depart="2230.68" departLane="best" from="-37501148" to="-176910656" type="truck"/>
    <trip id="truck283" depart="2238.59" departLane="best" from="30416739#6" to="177308086" type="truck"/>
    <trip id="truck284" depart="2246.50" departLane="best" from="40577572#0" to="304384082#15" type="truck"/>
    <trip id="truck285" depart="2254.41" departLane="best" from="324041278#2" to="-33128293#4" type="truck"/>
    <trip id="truck286" depart="2262.32" departLane="best" from="37347754#8" to="30533575#1" type="truck"/>
    <trip id="truck287" depart="2270.23" departLane="best" from="-38044984" to="-194799789#0" type="truck"/>
    <trip id="truck288" depart="2278.14" departLane="best" from="37180298#3" to="248140804" type="truck"/>
    <trip id="truck289" depart="2286.05" departLane="best" from="-266666414" to="30801681#2" type="truck"/>
    <trip id="truck291" depart="2301.87" departLane="best" from="30417609#3" to="180878324" type="truck"/>
    <trip id="truck292" depart="2309.78" departLane="best" from="32644569#2" to="30598584#5" type="truck"/>
    <trip id="truck293" depart="2317.69" departLane="best" from="33128397" to="175999120#1" type="truck"/>
    <trip id="truck294" depart="2325.60" departLane="best" from="29062013#7" to="29019892#12" type="truck"/>
    <trip id="truck295" depart="2333.51" departLane="best" from="30533904#0" to="30598933#0" type="truck"/>
    <trip id="truck296" depart="2341.42" departLane="best" from="324752780#0" to="38922730#0" type="truck"/>
    <trip id="truck297" depart="2349.33" departLane="best" from="119027251" to="175790472#9" type="truck"/>
    <trip id="truck299" depart="2365.16" departLane="best" from="-37355824" to="-266666416#1" type="truck"/>
    <trip id="truck301" depart="2380.98" departLane="best" from="304384082#2" to="180135575" type="truck"/>
    <trip id="truck302" depart="2388.89" departLane="best" from="169051264" to="324985132#2" type="truck"/>
    <trip id="truck303" depart="2396.80" departLane="best" from="324043272#3" to="290404533" type="truck"/>
    <trip id="truck304" depart="2404.71" departLane="best" from="30993606#3" to="38060280#2" type="truck"/>
    <trip id="truck305" depart="2412.62" departLane="best" from="33128295" to="30616970" type="truck"/>
    <trip id="truck306" depart="2420.53" departLane="best" from="200916233#0" to="30418072#4" type="truck"/>
    <trip id="truck307" depart="2428.44" departLane="best" from="30598584#6" to="37720475" type="truck"/>
    <trip id="truck308" depart="2436.35" departLane="best" from="37180457" to="-266666376" type="truck"/>