<?xml version="1.0"?>
<!-- generated on 2015-09-10 13:57:12.609039 by $Id: route2trips.py 18237 2015-04-20 10:43:52Z namdre $ -->
<trips>
    <vType vClass="truck" id="truck"/>
    <trip id="truck0" depart="0.00" departLane="best" from="30565122#4" to="-180135575" type="truck"/>
    <trip id="truck1" depart="7.91" departLane="best" from="324751770#4" to="324317862#8" type="truck"/>
    <trip id="truck2" depart="15.82" departLane="best" from="37383981#1" to="-30529779#2" type="truck"/>
    <trip id="truck3" depart="23.73" departLane="best" from="194799782#0" to="-180762426" type="truck"/>
    <trip id="truck4" depart="31.64" departLane="best" from="169015057#1" to="30416739#3" type="truck"/>
    <trip id="truck5" depart="39.55" departLane="best" from="-180878324" to="171874523" type="truck"/>
    <trip id="truck6" depart="47.46" departLane="best" from="169017784#4" to="30533904#1" type="truck"/>
    <trip id="truck7" depart="55.37" departLane="best" from="37164509#1" to="-169017784#3" type="truck"/>
    <trip id="truck8" depart="63.28" departLane="best" from="338958024#1" to="324751761#6" type="truck"/>
    <trip id="truck11" depart="87.01" departLane="best" from="-290617981" to="-30801686" type="truck"/>
    <trip id="truck12" depart="94.92" departLane="best" from="37180734#2" to="30565218#0" type="truck"/>
    <trip id="truck13" depart="102.83" departLane="best" from="34878500#1" to="324986675" type="truck"/>
    <trip id="truck15" depart="118.65" departLane="best" from="182007930" to="30418155#1" type="truck"/>
    <trip id="truck16" depart="126.56" departLane="best" from="37180457" to="30598948#1" type="truck"/>
    <trip id="truck17" depart="134.47" departLane="best" from="37180987#2" to="30533407#2" type="truck"/>
    <trip id="truck18" depart="142.38" departLane="best" from="324241987" to="-194799780#0" type="truck"/>
    <trip id="truck19" depart="150.29" departLane="best" from="-268408771#1" to="175999158#2" type="truck"/>
    <trip id="truck20" depart="158.20" departLane="best" from="-30567637#0" to="177308094#1" type="truck"/>
    <trip id="truck21" depart="166.11" departLane="best" from="181961188#3" to="175790476#2" type="truck"/>
    <trip id="truck22" depart="174.02" departLane="best" from="175999097#0" to="38060299" type="truck"/>
    <trip id="truck23" depart="181.94" departLane="best" from="30598584#4" to="30598482#5" type="truck"/>
    <trip id="truck24" depart="189.85" departLane="best" from="-37355824" to="324986673" type="truck"/>
    <trip id="truck26" depart="205.67" departLane="best" from="30416961#1" to="324751734#2" type="truck"/>
    <trip id="truck27" depart="213.58" departLane="best" from="171677012#3" to="-180878327" type="truck"/>
    <trip id="truck28" depart="221.49" departLane="best" from="177308060#3" to="177308063" type="truck"/>
    <trip id="truck30" depart="237.31" departLane="best" from="37350431#3" to="181737756" type="truck"/>
    <trip id="truck31" depart="245.22" departLane="best" from="30598948#3" to="221265721#2" type="truck"/>
    <trip id="truck32" depart="253.13" departLane="best" from="37722022" to="29019892#0" type="truck"/>
    <trip id="truck33" depart="261.04" departLane="best" from="175999088#2" to="176910651#0" type="truck"/>
    <trip id="truck34" depart="268.95" departLane="best" from="30418072#0" to="37501148" type="truck"/>
    <trip id="truck35" depart="276.86" departLane="best" from="182175782" to="175999092#2" type="truck"/>
    <trip id="truck37" depart="292.68" departLane="best" from="-279549607" to="-194799781#1" type="truck"/>
    <trip id="truck38" depart="300.59" departLane="best" from="-324241989" to="30616902#1" type="truck"/>
    <trip id="truck39" depart="308.50" departLane="best" from="33128293#3" to="266658725" type="truck"/>
    <trip id="truck40" depart="316.41" departLane="best" from="-266666363" to="202278346#0" type="truck"/>
    <trip id="truck41" depart="324.32" departLane="best" from="69221704" to="30417206#6" type="truck"/>
    <trip id="truck43" depart="340.14" departLane="best" from="-176910638" to="324985147#2" type="truck"/>
    <trip id="truck44" depart="348.05" departLane="best" from="30979908#1" to="30417787" type="truck"/>
    <trip id="truck45" depart="355.96" departLane="best" from="175999092#3" to="30918556#1" type="truck"/>
    <trip id="truck46" depart="363.87" departLane="best" from="-324317862#2" to="266666413" type="truck"/>
    <trip id="truck47" depart="371.78" departLane="best" from="230844224" to="38923009#7" type="truck"/>
    <trip id="truck48" depart="379.69" departLane="best" from="37350431#2" to="177308056#0" type="truck"/>
    <trip id="truck49" depart="387.60" departLane="best" from="290617980#1" to="170268763" type="truck"/>
    <trip id="truck50" depart="395.51" departLane="best" from="37720450#2" to="37355471#0" type="truck"/>
    <trip id="truck51" depart="403.42" departLane="best" from="176910669#0" to="30802007#3" type="truck"/>
    <trip id="truck53" depart="419.24" departLane="best" from="326910420" to="30417335#1" type="truck"/>
    <trip id="truck54" depart="427.15" departLane="best" from="-180082654" to="38060282" type="truck"/>
    <trip id="truck55" depart="435.06" departLane="best" from="37350436#0" to="37180735#0" type="truck"/>
    <trip id="truck56" depart="442.97" departLane="best" from="177308050" to="-205013604#4" type="truck"/>
    <trip id="truck57" depart="450.88" departLane="best" from="37350432#4" to="38060333" type="truck"/>
    <trip id="truck58" depart="458.79" departLane="best" from="-279549603#0" to="29062007#0" type="truck"/>
    <trip id="truck59" depart="466.70" departLane="best" from="-266666409#3" to="33128045#3" type="truck"/>
    <trip id="truck60" depart="474.61" departLane="best" from="324994585" to="-37180457" type="truck"/>
    <trip id="truck61" depart="482.52" departLane="best" from="266666409#0" to="30418072#1" type="truck"/>
    <trip id="truck62" depart="490.43" departLane="best" from="175999088#3" to="37355823#2" type="truck"/>
    <trip id="truck63" depart="498.34" departLane="best" from="194799786#0" to="175790489#2" type="truck"/>
    <trip id="truck64" depart="506.25" departLane="best" from="30416743#2" to="324986676" type="truck"/>
    <trip id="truck65" depart="514.16" departLane="best" from="69221692#7" to="30993606#5" type="truck"/>
    <trip id="truck66" depart="522.07" departLane="best" from="205013607#0" to="30416921#0" type="truck"/>
    <trip id="truck67" depart="529.98" departLane="best" from="-324751748#6" to="175999120#1" type="truck"/>
    <trip id="truck68" depart="537.89" departLane="best" from="177338964" to="30533880#3" type="truck"/>
    <trip id="truck69" depart="545.81" departLane="best" from="171677012#6" to="175999097#1" type="truck"/>
    <trip id="truck70" depart="553.72" departLane="best" from="-266666413" to="30616970" type="truck"/>
    <trip id="truck71" depart="561.63" departLane="best" from="171677012#2" to="37720450#0" type="truck"/>
    <trip id="truck72" depart="569.54" departLane="best" from="37180984#2" to="-266666409#2" type="truck"/>
    <trip id="truck73" depart="577.45" departLane="best" from="171698588#4" to="324043275" type="truck"/>
    <trip id="truck74" depart="585.36" departLane="best" from="159554244#1" to="-37180732#2" type="truck"/>
    <trip id="truck75" depart="593.27" departLane="best" from="38060288#6" to="30530306#1" type="truck"/>
    <trip id="truck76" depart="601.18" departLane="best" from="266666374#0" to="338958023" type="truck"/>
    <trip id="truck77" depart="609.09" departLane="best" from="34878531" to="171698588#2" type="truck"/>
    <trip id="truck78" depart="617.00" departLane="best" from="-30529779#6" to="266666397" type="truck"/>
    <trip id="truck79" depart="624.91" departLane="best" from="194799786#0" to="290617321#0" type="truck"/>
    <trip id="truck80" depart="632.82" departLane="best" from="324751760" to="324317859" type="truck"/>
    <trip id="truck81" depart="640.73" departLane="best" from="37180987#2" to="176910663" type="truck"/>
    <trip id="truck83" depart="656.55" departLane="best" from="194799782#0" to="177308097#1" type="truck"/>
    <trip id="truck84" depart="664.46" departLane="best" from="30416921#2" to="-194799789#0" type="truck"/>
    <trip id="truck85" depart="672.37" departLane="best" from="69730786#0" to="37180896#0" type="truck"/>
    <trip id="truck88" depart="696.10" departLane="best" from="269007653" to="175793381#1" type="truck"/>
    <trip id="truck89" depart="704.01" departLane="best" from="182857082#2" to="-205013607#2" type="truck"/>
    <trip id="truck90" depart="711.92" departLane="best" from="182007932#0" to="4526409#0" type="truck"/>
    <trip id="truck91" depart="719.83" departLane="best" from="175999088#3" to="335280851" type="truck"/>
    <trip id="truck92" depart="727.74" departLane="best" from="230844225" to="266658728#1" type="truck"/>
    <trip id="truck94" depart="743.56" departLane="best" from="30416947#2" to="324985142#1" type="truck"/>
    <trip id="truck95" depart="751.47" departLane="best" from="-37180452" to="180242033#1" type="truck"/>
    <trip id="truck96" depart="759.38" departLane="best" from="39958266#3" to="30533523#5" type="truck"/>
    <trip id="truck97" depart="767.29" departLane="best" from="30416800#0" to="32644646#2" type="truck"/>
    <trip id="truck98" depart="775.20" departLane="best" from="-259712946" to="30533752#2" type="truck"/>
    <trip id="truck99" depart="783.11" departLane="best" from="290618568#0" to="37343418" type="truck"/>
    <trip id="truck100" depart="791.02" departLane="best" from="-37180727#5" to="38923311#6" type="truck"/>
    <trip id="truck101" depart="798.93" departLane="best" from="304384082#11" to="324317862#3" type="truck"/>
    <trip id="truck102" depart="806.84" departLane="best" from="171698525#1" to="-324994585" type="truck"/>
    <trip id="truck103" depart="814.75" departLane="best" from="37383970" to="176910642" type="truck"/>
    <trip id="truck104" depart="822.66" departLane="best" from="304384082#1" to="30598950" type="truck"/>
    <trip id="truck105" depart="830.57" departLane="best" from="194799743#2" to="30533752#0" type="truck"/>
    <trip id="truck106" depart="838.48" departLane="best" from="29062008#9" to="38060291#5" type="truck"/>
    <trip id="truck107" depart="846.39" departLane="best" from="119447023#1" to="324985136" type="truck"/>
    <trip id="truck108" depart="854.30" departLane="best" from="171698588#6" to="221265721#2" type="truck"/>
    <trip id="truck109" depart="862.21" departLane="best" from="30801995#4" to="180328745#2" type="truck"/>
    <trip id="truck110" depart="870.12" departLane="best" from="177308063" to="326910419#2" type="truck"/>
    <trip id="truck111" depart="878.03" departLane="best" from="-266666414" to="285267650#0" type="truck"/>
    <trip id="truck112" depart="885.94" departLane="best" from="69730786#0" to="69221692#5" type="truck"/>
    <trip id="truck113" depart="893.85" departLane="best" from="-266666416#2" to="175793377" type="truck"/>
    <trip id="truck114" depart="901.76" departLane="best" from="175999088#3" to="38060291#0" type="truck"/>
    <trip id="truck115" depart="909.68" departLane="best" from="181961188#1" to="103992207#1" type="truck"/>
    <trip id="truck116" depart="917.59" departLane="best" from="37180463#3" to="324751768" type="truck"/>
    <trip id="truck117" depart="925.50" departLane="best" from="37174488#3" to="180328745#0" type="truck"/>
    <trip id="truck118" depart="933.41" departLane="best" from="30616902#0" to="38060304" type="truck"/>
    <trip id="truck119" depart="941.32" departLane="best" from="-324041275" to="30418155#5" type="truck"/>
    <trip id="truck120" depart="949.23" departLane="best" from="324751734#1" to="172022403#0" type="truck"/>
    <trip id="truck121" depart="957.14" departLane="best" from="30534258#2" to="177308057#0" type="truck"/>
    <trip id="truck122" depart="965.05" departLane="best" from="279549602#1" to="37720450#0" type="truck"/>
    <trip id="truck123" depart="972.96" departLane="best" from="194799786#0" to="177308086" type="truck"/>
    <trip id="truck124" depart="980.87" departLane="best" from="-159080707" to="33128397" type="truck"/>
    <trip id="truck125" depart="988.78" departLane="best" from="324752778#1" to="30418155#0" type="truck"/>
    <trip id="truck126" depart="996.69" departLane="best" from="194828057#0" to="-176908068#0" type="truck"/>
    <trip id="truck127" depart="1004.60" departLane="best" from="-266670737" to="37383974" type="truck"/>
    <trip id="truck128" depart="1012.51" departLane="best" from="37394817#4" to="30418000#0" type="truck"/>
    <trip id="truck129" depart="1020.42" departLane="best" from="-335278790" to="-37180457" type="truck"/>
    <trip id="truck130" depart="1028.33" departLane="best" from="177308051" to="37501148" type="truck"/>
    <trip id="truck133" depart="1052.06" departLane="best" from="172021657#0" to="-324317862#3" type="truck"/>
    <trip id="truck134" depart="1059.97" departLane="best" from="32761348#3" to="37383981#1" type="truck"/>
    <trip id="truck135" depart="1067.88" departLane="best" from="184162394#0" to="30598958#3" type="truck"/>
    <trip id="truck136" depart="1075.79" departLane="best" from="-37180452" to="38060284#1" type="truck"/>
    <trip id="truck138" depart="1091.61" departLane="best" from="37164516#3" to="37376904" type="truck"/>
    <trip id="truck140" depart="1107.43" departLane="best" from="177308114#0" to="38060288#1" type="truck"/>
    <trip id="truck141" depart="1115.34" departLane="best" from="33175462" to="37350432#5" type="truck"/>
    <trip id="truck142" depart="1123.25" departLane="best" from="37164516#3" to="177308060#2" type="truck"/>
    <trip id="truck143" depart="1131.16" departLane="best" from="33128045#3" to="-324751745" type="truck"/>
    <trip id="truck144" depart="1139.07" departLane="best" from="169051254#1" to="37180462#1" type="truck"/>
    <trip id="truck145" depart="1146.98" departLane="best" from="246519196#0" to="180762421" type="truck"/>
    <trip id="truck146" depart="1154.89" departLane="best" from="33128389#3" to="175999132#2" type="truck"/>
    <trip id="truck147" depart="1162.80" departLane="best" from="-180762421" to="171720609#1" type="truck"/>
    <trip id="truck148" depart="1170.71" departLane="best" from="177308097#0" to="37350436#0" type="truck"/>
    <trip id="truck149" depart="1178.62" departLane="best" from="39958266#0" to="177308099#0" type="truck"/>
    <trip id="truck150" depart="1186.53" departLane="best" from="30567551#3" to="230844223#2" type="truck"/>
    <trip id="truck152" depart="1202.35" departLane="best" from="38923397" to="177308057#4" type="truck"/>
    <trip id="truck154" depart="1218.17" departLane="best" from="324751756#2" to="181737753" type="truck"/>
    <trip id="truck155" depart="1226.08" departLane="best" from="30530306#1" to="30416808#2" type="truck"/>
    <trip id="truck156" depart="1233.99" departLane="best" from="182015533#0" to="30533350#3" type="truck"/>
    <trip id="truck158" depart="1249.81" departLane="best" from="30416739#6" to="324985145" type="truck"/>
    <trip id="truck159" depart="1257.72" departLane="best" from="324752778#3" to="324241990" type="truck"/>
    <trip id="truck160" depart="1265.63" departLane="best" from="181737751#0" to="-266666376" type="truck"/>
    <trip id="truck161" depart="1273.55" departLane="best" from="30616902#2" to="182007938#2" type="truck"/>
    <trip id="truck162" depart="1281.46" departLane="best" from="177308058#0" to="37295846#1" type="truck"/>
    <trip id="truck163" depart="1289.37" departLane="best" from="324751739#2" to="180328745#3" type="truck"/>
    <trip id="truck164" depart="1297.28" departLane="best" from="177308054#1" to="246519215" type="truck"/>
    <trip id="truck165" depart="1305.19" departLane="best" from="182857087#0" to="180135575" type="truck"/>
    <trip id="truck166" depart="1313.10" departLane="best" from="-324985147#0" to="266152523" type="truck"/>
    <trip id="truck167" depart="1321.01" departLane="best" from="38060298" to="324578414#1" type="truck"/>
    <trip id="truck168" depart="1328.92" departLane="best" from="37394817#0" to="30598933#2" type="truck"/>
    <trip id="truck169" depart="1336.83" departLane="best" from="176954448" to="30418030" type="truck"/>
    <trip id="truck170" depart="1344.74" departLane="best" from="-103992207#0" to="177308121" type="truck"/>
    <trip id="truck171" depart="1352.65" departLane="best" from="194828057#3" to="30533523#7" type="truck"/>
    <trip id="truck172" depart="1360.56" departLane="best" from="30598948#0" to="290404535#3" type="truck"/>
    <trip id="truck173" depart="1368.47" departLane="best" from="205013618#0" to="175793381#1" type="truck"/>
    <trip id="truck174" depart="1376.38" departLane="best" from="266666376" to="37501151#6" type="truck"/>
    <trip id="truck176" depart="1392.20" departLane="best" from="-279548235" to="30416913#0" type="truck"/>
    <trip id="truck177" depart="1400.11" departLane="best" from="30534063#6" to="182015534#1" type="truck"/>
    <trip id="truck178" depart="1408.02" departLane="best" from="37174491#1" to="326910418" type="truck"/>
    <trip id="truck179" depart="1415.93" departLane="best" from="30802007#1" to="175999120#1" type="truck"/>
    <trip id="truck180" depart="1423.84" departLane="best" from="171772286#0" to="290618574" type="truck"/>
    <trip id="truck181" depart="1431.75" departLane="best" from="37180739#1" to="-266666416#0" type="truck"/>
    <trip id="truck184" depart="1455.48" departLane="best" from="29019892#7" to="176908074#2" type="truck"/>
    <trip id="truck185" depart="1463.39" departLane="best" from="30598958#0" to="-159554254#1" type="truck"/>
    <trip id="truck186" depart="1471.30" departLane="best" from="324985147#2" to="33128389#3" type="truck"/>
    <trip id="truck187" depart="1479.21" departLane="best" from="-37501148" to="38923216#3" type="truck"/>
    <trip id="truck188" depart="1487.12" departLane="best" from="29062005#0" to="-194799786#1" type="truck"/>
    <trip id="truck189" depart="1495.03" departLane="best" from="172020977#2" to="37295846#2" type="truck"/>
    <trip id="truck191" depart="1510.85" departLane="best" from="304384082#13" to="38922730#1" type="truck"/>
    <trip id="truck192" depart="1518.76" departLane="best" from="37383977#0" to="30598837#0" type="truck"/>
    <trip id="truck193" depart="1526.67" departLane="best" from="37180459#0" to="30418030" type="truck"/>
    <trip id="truck194" depart="1534.58" departLane="best" from="37394168#1" to="32644569#0" type="truck"/>
    <trip id="truck195" depart="1542.49" departLane="best" from="266666395#0" to="177308048" type="truck"/>
    <trip id="truck196" depart="1550.40" departLane="best" from="171874660#1" to="30802007#0" type="truck"/>
    <trip id="truck197" depart="1558.31" departLane="best" from="324994585" to="30416939#1" type="truck"/>
    <trip id="truck198" depart="1566.22" departLane="best" from="30533953#5" to="177308080#5" type="truck"/>
    <trip id="truck199" depart="1574.13" departLane="best" from="-268307751" to="177308119#4" type="truck"/>
    <trip id="truck200" depart="1582.04" departLane="best" from="30416743#5" to="-37180896#0" type="truck"/>
    <trip id="truck201" depart="1589.95" departLane="best" from="171684933#2" to="324751753#0" type="truck"/>
    <trip id="truck202" depart="1597.86" departLane="best" from="324317003#0" to="-250563620#2" type="truck"/>
    <trip id="truck203" depart="1605.77" departLane="best" from="184162395#2" to="30417973#11" type="truck"/>
    <trip id="truck205" depart="1621.59" departLane="best" from="194799779" to="37503198#0" type="truck"/>
    <trip id="truck206" depart="1629.50" departLane="best" from="30418072#0" to="324751758" type="truck"/>
    <trip id="truck208" depart="1645.33" departLane="best" from="182007936#0" to="-169017784#1" type="truck"/>
    <trip id="truck209" depart="1653.24" departLane="best" from="180762420" to="32761334" type="truck"/>
    <trip id="truck210" depart="1661.15" departLane="best" from="37180896#0" to="38923009#5" type="truck"/>
    <trip id="truck211" depart="1669.06" departLane="best" from="194799743#2" to="32644646#1" type="truck"/>
    <trip id="truck212" depart="1676.97" departLane="best" from="202278347#1" to="-180762422#0" type="truck"/>
    <trip id="truck213" depart="1684.88" departLane="best" from="177308120#0" to="324579708" type="truck"/>
    <trip id="truck214" depart="1692.79" departLane="best" from="182857090#0" to="159080700" type="truck"/>
    <trip id="truck215" depart="1700.70" departLane="best" from="265745121#2" to="-37180457" type="truck"/>
    <trip id="truck216" depart="1708.61" departLane="best" from="30533820#3" to="-180241128" type="truck"/>
    <trip id="truck217" depart="1716.52" departLane="best" from="182175774#0" to="304384090" type="truck"/>
    <trip id="truck218" depart="1724.43" departLane="best" from="-181961195#0" to="30919063#6" type="truck"/>
    <trip id="truck219" depart="1732.34" departLane="best" from="-324991232" to="29019892#6" type="truck"/>
    <trip id="truck220" depart="1740.25" departLane="best" from="-245135214" to="200916233#0" type="truck"/>
    <trip id="truck221" depart="1748.16" departLane="best" from="156437791#3" to="182007933" type="truck"/>
    <trip id="truck222" depart="1756.07" departLane="best" from="324994573" to="200916233#0" type="truck"/>
    <trip id="truck223" depart="1763.98" departLane="best" from="324985722#0" to="37180735#0" type="truck"/>
    <trip id="truck224" depart="1771.89" departLane="best" from="175790472#1" to="-279549603#2" type="truck"/>
    <trip id="truck225" depart="1779.80" departLane="best" from="-180082654" to="30417886#2" type="truck"/>
    <trip id="truck226" depart="1787.71" departLane="best" from="99005064" to="182857082#2" type="truck"/>
    <trip id="truck227" depart="1795.62" departLane="best" from="30598847#1" to="335278788#1" type="truck"/>
    <trip id="truck228" depart="1803.53" departLane="best" from="30598933#1" to="32761348#1" type="truck"/>
    <trip id="truck229" depart="1811.44" departLane="best" from="38060327#2" to="171874524#1" type="truck"/>
    <trip id="truck231" depart="1827.26" departLane="best" from="-324985134#1" to="324241987" type="truck"/>
    <trip id="truck232" depart="1835.17" departLane="best" from="30417375" to="175999088#2" type="truck"/>
    <trip id="truck233" depart="1843.08" departLane="best" from="324043269#0" to="33128055" type="truck"/>
    <trip id="truck234" depart="1850.99" departLane="best" from="-37347752" to="30567637#3" type="truck"/>
    <trip id="truck235" depart="1858.90" departLane="best" from="37174491#4" to="38923644#1" type="truck"/>
    <trip id="truck237" depart="1874.72" departLane="best" from="177308056#0" to="324578414#1" type="truck"/>
    <trip id="truck238" depart="1882.63" departLane="best" from="38923194#1" to="224716861#1" type="truck"/>
    <trip id="truck239" depart="1890.54" departLane="best" from="324751729#0" to="-268556971" type="truck"/>
    <trip id="truck240" depart="1898.45" departLane="best" from="310772654#1" to="30616902#1" type="truck"/>
    <trip id="truck241" depart="1906.36" departLane="best" from="-30567637#3" to="33128564#3" type="truck"/>
    <trip id="truck242" depart="1914.27" departLane="best" from="37180740#1" to="30564973#3" type="truck"/>
    <trip id="truck244" depart="1930.09" departLane="best" from="194828057#0" to="194799779" type="truck"/>
    <trip id="truck246" depart="1945.91" departLane="best" from="37180739#0" to="37180725#9" type="truck"/>
    <trip id="truck247" depart="1953.82" departLane="best" from="-30801686" to="38923311#6" type="truck"/>
    <trip id="truck248" depart="1961.73" departLane="best" from="30541280#0" to="37180730#1" type="truck"/>
    <trip id="truck249" depart="1969.64" departLane="best" from="324317005#0" to="266666414" type="truck"/>
    <trip id="truck250" depart="1977.55" departLane="best" from="324751767#0" to="39958266#3" type="truck"/>
    <trip id="truck251" depart="1985.46" departLane="best" from="175999120#1" to="37180296" type="truck"/>
    <trip id="truck252" depart="1993.37" departLane="best" from="30416739#5" to="290619181#1" type="truck"/>
    <trip id="truck253" depart="2001.29" departLane="best" from="202278347#0" to="324991230" type="truck"/>
    <trip id="truck254" depart="2009.20" departLane="best" from="175999106#1" to="37343413" type="truck"/>
    <trip id="truck255" depart="2017.11" departLane="best" from="37180459#1" to="-30529779#2" type="truck"/>
    <trip id="truck256" depart="2025.02" departLane="best" from="37351625#1" to="176908074#2" type="truck"/>
    <trip id="truck257" depart="2032.93" departLane="best" from="250563619#0" to="30598584#0" type="truck"/>
    <trip id="truck258" depart="2040.84" departLane="best" from="182007932#0" to="-180762422#0" type="truck"/>
    <trip id="truck259" depart="2048.75" departLane="best" from="37180741#1" to="171671530#1" type="truck"/>
    <trip id="truck260" depart="2056.66" departLane="best" from="159080700" to="37174481#2" type="truck"/>
    <trip id="truck261" depart="2064.57" departLane="best" from="177338977" to="37376903" type="truck"/>
    <trip id="truck262" depart="2072.48" departLane="best" from="324043270#1" to="177308083" type="truck"/>
    <trip id="truck263" depart="2080.39" departLane="best" from="-176908068#3" to="38060337" type="truck"/>
    <trip id="truck264" depart="2088.30" departLane="best" from="-279549603#0" to="324985147#0" type="truck"/>
    <trip id="truck265" depart="2096.21" departLane="best" from="279549602#1" to="33127323#1" type="truck"/>
    <trip id="truck266" depart="2104.12" departLane="best" from="310772654#1" to="30979908#3" type="truck"/>
    <trip id="truck267" depart="2112.03" departLane="best" from="285267650#0" to="37164516#2" type="truck"/>
    <trip id="truck268" depart="2119.94" departLane="best" from="-290617981" to="175999106#1" type="truck"/>
    <trip id="truck270" depart="2135.76" departLane="best" from="29081858#2" to="266658733" type="truck"/>
    <trip id="truck271" depart="2143.67" departLane="best" from="324985135" to="182007938#4" type="truck"/>
    <trip id="truck272" depart="2151.58" departLane="best" from="324043272#3" to="177308073" type="truck"/>
    <trip id="truck273" depart="2159.49" departLane="best" from="172022404" to="-324994585" type="truck"/>
    <trip id="truck275" depart="2175.31" departLane="best" from="30167346" to="33128045#8" type="truck"/>
    <trip id="truck276" depart="2183.22" departLane="best" from="-38060332" to="175999085#0" type="truck"/>
    <trip id="truck277" depart="2191.13" departLane="best" from="40577572#1" to="30416961#1" type="truck"/>
    <trip id="truck278" depart="2199.04" departLane="best" from="176908068#0" to="-324241989" type="truck"/>
    <trip id="truck280" depart="2214.86" departLane="best" from="-38044984" to="-176910656" type="truck"/>
    <trip id="truck282" depart="2230.68" departLane="best" from="324041278#4" to="-34878500#1" type="truck"/>
    <trip id="truck283" depart="2238.59" departLane="best" from="37347754#2" to="30530322#1" type="truck"/>
    <trip id="truck284" depart="2246.50" departLane="best" from="266658728#1" to="268307751" type="truck"/>
    <trip id="truck285" depart="2254.41" departLane="best" from="-38060303#2" to="-194799789#0" type="truck"/>
    <trip id="truck286" depart="2262.32" departLane="best" from="38060298" to="290618576#5" type="truck"/>
    <trip id="truck287" depart="2270.23" departLane="best" from="37174492#4" to="230844223#5" type="truck"/>
    <trip id="truck288" depart="2278.14" departLane="best" from="-266666417" to="30616932" type="truck"/>
    <trip id="truck290" depart="2293.96" departLane="best" from="324994580#1" to="30567637#0" type="truck"/>
    <trip id="truck291" depart="2301.87" departLane="best" from="33128055" to="175999129#0" type="truck"/>
    <trip id="truck292" depart="2309.78" departLane="best" from="29062008#8" to="279548233" type="truck"/>
    <trip id="truck293" depart="2317.69" departLane="best" from="205013618#2" to="37347754#8" type="truck"/>
    <trip id="truck294" depart="2325.60" departLane="best" from="30533774#2" to="30598581#1" type="truck"/>
    <trip id="truck295" depart="2333.51" departLane="best" from="324752522" to="38060335#1" type="truck"/>
    <trip id="truck296" depart="2341.42" departLane="best" from="30598985#10" to="101940018" type="truck"/>
    <trip id="truck297" depart="2349.33" departLane="best" from="-37376904" to="-268408771#0" type="truck"/>
    <trip id="truck299" depart="2365.16" departLane="best" from="304384078" to="177573963" type="truck"/>
    <trip id="truck300" depart="2373.07" departLane="best" from="171684933#2" to="324752295#1" type="truck"/>
    <trip id="truck301" depart="2380.98" departLane="best" from="324043272#3" to="279549604#1" type="truck"/>
    <trip id="truck302" depart="2388.89" departLane="best" from="30993606#4" to="38060279#1" type="truck"/>
    <trip id="truck303" depart="2396.80" departLane="best" from="33128045#4" to="30616857" type="truck"/>
    <trip id="truck304" depart="2404.71" departLane="best" from="194799789#0" to="30417973#7" type="truck"/>
    <trip id="truck305" depart="2412.62" departLane="best" from="30598584#2" to="37720475" type="truck"/>
    <trip id="truck306" depart="2420.53" departLane="best" from="37180301#0" to="-266666409#4" type="truck"/>
    <trip id="truck307" depart="2428.44" departLane="best" from="-37343420#2" to="180762424#2" type="truck"/>
    <trip id="truck308" depart="2436.35" departLane="best" from="324985143" to="30529948" type="truck"/>
    <trip id="truck309" depart="2444.26" departLane="best" from="176910642" to="-33128293#3" type="truck"/>
    <trip id="truck310" depart="2452.17" departLane="best" from="30993871#1" to="324751763#1" type="truck"/>
    <trip id="truck311" depart="2460.08" departLane="best" from="38060303#1" to="301007595#1" type="truck"/>